[Format]      =  3.3
[Frequency]   =  0
[Precision]   =  1e-008
[Depth]       =  0
[LengthUnits] =  millimeters
[ProblemType] =  planar
[Coordinates] =  cartesian
[Comment]     =  "Add comments here."
[PointProps]   = 0
[BdryProps]   = 1
  <BeginBdry>
    <BdryName> = "Azero"
    <BdryType> = 0
    <A_0> = 0
    <A_1> = 0
    <A_2> = 0
    <Phi> = 0
    <c0> = 0
    <c1> = 0
    <Mu_ssd> = 0
    <Sigma_ssd> = 0
  <EndBdry>
[BlockProps]  = 5
  <BeginBlock>
    <BlockName> = "Air"
    <Mu_x> = 1
    <Mu_y> = 1
    <H_c> = 0
    <H_cAngle> = 0
    <J_re> = 0
    <J_im> = 0
    <Sigma> = 0
    <d_lam> = 0
    <Phi_h> = 0
    <Phi_hx> = 0
    <Phi_hy> = 0
    <LamType> = 0
    <LamFill> = 1
    <BHPoints> = 0
  <EndBlock>
  <BeginBlock>
    <BlockName> = "Iron"
    <Mu_x> = 5000
    <Mu_y> = 5000
    <H_c> = 0
    <H_cAngle> = 0
    <J_re> = 0
    <J_im> = 0
    <Sigma> = 0
    <d_lam> = 0
    <Phi_h> = 0
    <Phi_hx> = 0
    <Phi_hy> = 0
    <LamType> = 0
    <LamFill> = 1
    <BHPoints> = 0
  <EndBlock>
  <BeginBlock>
    <BlockName> = "iIron"
    <Mu_x> = 1000000
    <Mu_y> = 1000000
    <H_c> = 0
    <H_cAngle> = 0
    <J_re> = 0
    <J_im> = 0
    <Sigma> = 0
    <d_lam> = 0
    <Phi_h> = 0
    <Phi_hx> = 0
    <Phi_hy> = 0
    <LamType> = 0
    <LamFill> = 1
    <BHPoints> = 0
  <EndBlock>
  <BeginBlock>
    <BlockName> = "Magnet"
    <Mu_x> = 1.0800000000000001
    <Mu_y> = 1.0800000000000001
    <H_c> = 666800
    <H_cAngle> = 0
    <J_re> = 0
    <J_im> = 0
    <Sigma> = 0.66700000000000004
    <d_lam> = 0
    <Phi_h> = 0
    <Phi_hx> = 0
    <Phi_hy> = 0
    <LamType> = 0
    <LamFill> = 1
    <BHPoints> = 0
  <EndBlock>
  <BeginBlock>
    <BlockName> = "Terni"
    <Mu_x> = 7000
    <Mu_y> = 7000
    <H_c> = 0
    <H_cAngle> = 0
    <J_re> = 0
    <J_im> = 0
    <Sigma> = 3
    <d_lam> = 0
    <Phi_h> = 0
    <Phi_hx> = 0
    <Phi_hy> = 0
    <LamType> = 0
    <LamFill> = 1
    <BHPoints> = 36
      0	0
      0.40000000000000002	75
      0.52000000000000002	85
      0.56999999999999995	90
      0.65000000000000002	100
      0.69999999999999996	110
      0.80000000000000004	125
      0.90000000000000002	145
      0.94999999999999996	160
      1	170
      1.05	185
      1.1000000000000001	200
      1.1799999999999999	250
      1.25	300
      1.3	360
      1.3300000000000001	400
      1.3700000000000001	500
      1.3999999999999999	600
      1.4299999999999999	700
      1.47	900
      1.48	1000
      1.54	1500
      1.5800000000000001	2000
      1.605	2500
      1.6299999999999999	3000
      1.6699999999999999	4000
      1.7	5000
      1.74	6000
      1.78	8000
      1.8100000000000001	10000
      1.8799999999999999	15000
      1.9299999999999999	20000
      2	30000
      2.004	33000
      2.0750000000000002	90000
      3	1335600
  <EndBlock>
[CircuitProps]  = 0
[NumPoints] = 362
62.5	-1.4999999999999962	0	1000
63.5	-1.499999999999996	0	1000
64.5	-2.1286868376817085	0	1000
85.326127875091956	-3.9461093469903319	0	1000
87.5	-1.9536815605498838	0	1000
62.5	1.5000000000000038	0	1000
63.5	1.500000000000004	0	1000
64.5	2.1286868376817165	0	1000
85.326127875091956	3.9461093469903425	0	1000
87.5	1.9536815605498945	0	1000
61.810956829763391	-9.3757994746648308	0	1000
61.810956829763391	9.3757994746648379	0	1000
62.795764582775604	9.549447652331768	0	1000
63.889742659474429	9.1039601580330203	0	1000
84.71506696288094	10.930567533735164	0	1000
86.509931631299182	13.270214798109889	0	1000
61.290012296762605	12.330222733701461	0	1000
62.274820049774817	12.503870911368391	0	1000
63.150457479100403	13.296654761001001	0	1000
83.344597568922325	18.702885692035217	0	1000
85.83142514583723	17.118216293602931	0	1000
59.243819014107778	19.966720026675436	0	1000
60.183511634893691	20.308740170001105	0	1000
61.338227818010452	20.059987931172039	0	1000
81.529981608895113	25.475124651082172	0	1000
82.891302766118969	28.090902395181789	0	1000
58.21775858413077	22.785797889033159	0	1000
59.157451204916683	23.127818032358828	0	1000
59.882120263371725	24.060610557839233	0	1000
78.830683840022331	32.891384319444413	0	1000
81.554905871414988	31.762622686810246	0	1000
54.876587736527419	29.950961894323342	0	1000
55.74261314031186	30.450961894323342	0	1000
56.922981962937151	30.40650312186607	0	1000
75.867649019884325	39.245632996941119	0	1000
76.754063611413329	42.058062137658567	0	1000
53.376587736527419	32.549038105676658	0	1000
54.24261314031186	33.049038105676658	0	1000
54.794295125255438	34.093496878133919	0	1000
71.921539672893985	46.08049487815083	0	1000
74.800382050863448	45.441937862341426	0	1000
48.841959109465932	39.025158940730236	0	1000
49.608003552584911	39.667946550416779	0	1000
50.778160105338699	39.829132101635196	0	1000
67.900116306287146	51.823682643436541	0	1000
68.284691073305098	54.747308944488928	0	1000
46.913596280406317	41.323292270087173	0	1000
47.679640723525296	41.966079879773716	0	1000
48.041573057009451	43.090469547928372	0	1000
62.827095916859882	57.869472917840156	0	1000
65.773086472516042	57.740522750655444	0	1000
41.323292270087173	46.913596280406324	0	1000
41.966079879773716	47.679640723525303	0	1000
43.090469547928372	48.041573057009458	0	1000
57.869472917840156	62.827095916859889	0	1000
57.740522750655451	65.773086472516056	0	1000
39.025158940730236	48.84195910946594	0	1000
39.667946550416779	49.608003552584918	0	1000
39.829132101635196	50.778160105338706	0	1000
51.823682643436541	67.900116306287146	0	1000
54.747308944488935	68.284691073305112	0	1000
32.549038105676665	53.376587736527412	0	1000
33.049038105676658	54.242613140311853	0	1000
34.093496878133926	54.794295125255431	0	1000
46.080494878150837	71.921539672893985	0	1000
45.441937862341433	74.800382050863433	0	1000
29.950961894323346	54.876587736527412	0	1000
30.450961894323346	55.742613140311853	0	1000
30.406503121866081	56.922981962937143	0	1000
39.245632996941126	75.867649019884325	0	1000
42.058062137658574	76.754063611413315	0	1000
22.785797889033159	58.217758584130763	0	1000
23.127818032358828	59.157451204916676	0	1000
24.060610557839233	59.882120263371725	0	1000
32.891384319444413	78.830683840022317	0	1000
31.762622686810246	81.554905871414988	0	1000
19.966720026675436	59.243819014107771	0	1000
20.308740170001105	60.183511634893684	0	1000
20.059987931172039	61.338227818010452	0	1000
25.475124651082172	81.529981608895113	0	1000
28.090902395181789	82.891302766118969	0	1000
12.33022273370146	61.290012296762605	0	1000
12.50387091136839	62.274820049774817	0	1000
13.296654761000998	63.150457479100403	0	1000
18.702885692035213	83.344597568922325	0	1000
17.118216293602927	85.83142514583723	0	1000
9.3757994746648361	61.810956829763391	0	1000
9.5494476523317662	62.795764582775604	0	1000
9.1039601580330185	63.889742659474429	0	1000
10.930567533735161	84.71506696288094	0	1000
13.270214798109885	86.509931631299182	0	1000
1.5	62.5	0	1000
1.5	63.5	0	1000
2.1286868376817125	64.5	0	1000
3.9461093469903372	85.326127875091956	0	1000
1.9536815605498892	87.5	0	1000
-1.5	62.5	0	1000
-1.5	63.5	0	1000
-2.1286868376817125	64.5	0	1000
-3.9461093469903372	85.326127875091956	0	1000
-1.9536815605498892	87.5	0	1000
-9.3757994746648361	61.810956829763391	0	1000
-9.5494476523317662	62.795764582775604	0	1000
-9.1039601580330185	63.889742659474429	0	1000
-10.930567533735161	84.71506696288094	0	1000
-13.270214798109887	86.509931631299182	0	1000
-12.33022273370146	61.290012296762605	0	1000
-12.50387091136839	62.274820049774817	0	1000
-13.296654761000998	63.150457479100403	0	1000
-18.702885692035213	83.344597568922325	0	1000
-17.118216293602927	85.83142514583723	0	1000
-19.966720026675436	59.243819014107778	0	1000
-20.308740170001105	60.183511634893691	0	1000
-20.059987931172039	61.338227818010452	0	1000
-25.475124651082172	81.529981608895113	0	1000
-28.090902395181789	82.891302766118969	0	1000
-22.785797889033159	58.21775858413077	0	1000
-23.127818032358828	59.157451204916683	0	1000
-24.060610557839233	59.882120263371725	0	1000
-32.891384319444413	78.830683840022331	0	1000
-31.762622686810246	81.554905871414988	0	1000
-29.950961894323331	54.876587736527419	0	1000
-30.450961894323331	55.74261314031186	0	1000
-30.406503121866063	56.922981962937151	0	1000
-39.245632996941104	75.867649019884325	0	1000
-42.058062137658553	76.754063611413329	0	1000
-32.549038105676644	53.376587736527419	0	1000
-33.049038105676644	54.24261314031186	0	1000
-34.093496878133912	54.794295125255438	0	1000
-46.080494878150816	71.921539672893985	0	1000
-45.441937862341412	74.800382050863448	0	1000
-39.025158940730243	48.841959109465932	0	1000
-39.667946550416787	49.608003552584911	0	1000
-39.829132101635203	50.778160105338699	0	1000
-51.823682643436555	67.900116306287146	0	1000
-54.747308944488942	68.284691073305098	0	1000
-41.32329227008718	46.913596280406317	0	1000
-41.966079879773723	47.679640723525296	0	1000
-43.090469547928379	48.041573057009451	0	1000
-57.86947291784017	62.827095916859882	0	1000
-57.740522750655458	65.773086472516042	0	1000
-46.913596280406317	41.32329227008718	0	1000
-47.679640723525296	41.966079879773723	0	1000
-48.041573057009444	43.090469547928379	0	1000
-62.827095916859889	57.869472917840163	0	1000
-65.773086472516042	57.740522750655458	0	1000
-48.841959109465932	39.025158940730243	0	1000
-49.608003552584911	39.667946550416787	0	1000
-50.778160105338699	39.829132101635203	0	1000
-67.900116306287146	51.823682643436555	0	1000
-68.284691073305098	54.747308944488942	0	1000
-53.376587736527419	32.549038105676651	0	1000
-54.24261314031186	33.049038105676651	0	1000
-54.794295125255438	34.093496878133912	0	1000
-71.921539672893985	46.080494878150823	0	1000
-74.800382050863448	45.441937862341419	0	1000
-54.876587736527419	29.950961894323335	0	1000
-55.74261314031186	30.450961894323335	0	1000
-56.922981962937151	30.406503121866063	0	1000
-75.867649019884325	39.245632996941112	0	1000
-76.754063611413329	42.05806213765856	0	1000
-58.217758584130763	22.785797889033162	0	1000
-59.157451204916676	23.127818032358832	0	1000
-59.882120263371725	24.060610557839233	0	1000
-78.830683840022317	32.891384319444413	0	1000
-81.554905871414988	31.76262268681025	0	1000
-59.243819014107771	19.966720026675439	0	1000
-60.183511634893684	20.308740170001109	0	1000
-61.338227818010452	20.059987931172042	0	1000
-81.529981608895113	25.475124651082176	0	1000
-82.891302766118969	28.090902395181793	0	1000
-61.290012296762605	12.330222733701451	0	1000
-62.274820049774817	12.503870911368381	0	1000
-63.15045747910041	13.296654761000989	0	1000
-83.344597568922325	18.702885692035199	0	1000
-85.83142514583723	17.118216293602917	0	1000
-61.810956829763391	9.3757994746648272	0	1000
-62.795764582775604	9.5494476523317573	0	1000
-63.889742659474429	9.1039601580330078	0	1000
-84.71506696288094	10.93056753373515	0	1000
-86.509931631299182	13.270214798109874	0	1000
-62.5	1.5000000000000038	0	1000
-63.5	1.5000000000000038	0	1000
-64.5	2.1286868376817165	0	1000
-85.326127875091956	3.9461093469903425	0	1000
-87.5	1.9536815605498945	0	1000
-62.5	-1.4999999999999962	0	1000
-63.5	-1.4999999999999962	0	1000
-64.5	-2.1286868376817085	0	1000
-85.326127875091956	-3.9461093469903319	0	1000
-87.5	-1.9536815605498838	0	1000
-61.810956829763391	-9.3757994746648468	0	1000
-62.795764582775604	-9.5494476523317768	0	1000
-63.889742659474429	-9.1039601580330292	0	1000
-84.71506696288094	-10.930567533735175	0	1000
-86.509931631299182	-13.270214798109901	0	1000
-61.290012296762605	-12.33022273370147	0	1000
-62.274820049774817	-12.5038709113684	0	1000
-63.150457479100403	-13.296654761001008	0	1000
-83.344597568922325	-18.702885692035228	0	1000
-85.83142514583723	-17.118216293602941	0	1000
-59.243819014107778	-19.966720026675432	0	1000
-60.183511634893691	-20.308740170001101	0	1000
-61.338227818010452	-20.059987931172035	0	1000
-81.529981608895113	-25.475124651082169	0	1000
-82.891302766118969	-28.090902395181786	0	1000
-58.21775858413077	-22.785797889033155	0	1000
-59.157451204916683	-23.127818032358824	0	1000
-59.882120263371725	-24.06061055783923	0	1000
-78.830683840022331	-32.891384319444406	0	1000
-81.554905871414988	-31.762622686810243	0	1000
-54.876587736527412	-29.950961894323353	0	1000
-55.742613140311853	-30.450961894323353	0	1000
-56.922981962937143	-30.406503121866084	0	1000
-75.867649019884325	-39.245632996941133	0	1000
-76.754063611413315	-42.058062137658581	0	1000
-53.376587736527412	-32.549038105676665	0	1000
-54.242613140311853	-33.049038105676665	0	1000
-54.794295125255431	-34.093496878133934	0	1000
-71.921539672893985	-46.080494878150844	0	1000
-74.800382050863433	-45.44193786234144	0	1000
-48.841959109465932	-39.025158940730236	0	1000
-49.608003552584911	-39.667946550416779	0	1000
-50.778160105338699	-39.829132101635196	0	1000
-67.900116306287146	-51.823682643436541	0	1000
-68.284691073305098	-54.747308944488928	0	1000
-46.913596280406317	-41.323292270087173	0	1000
-47.679640723525296	-41.966079879773716	0	1000
-48.041573057009451	-43.090469547928372	0	1000
-62.827095916859882	-57.869472917840156	0	1000
-65.773086472516042	-57.740522750655444	0	1000
-41.32329227008718	-46.913596280406317	0	1000
-41.966079879773723	-47.679640723525296	0	1000
-43.090469547928379	-48.041573057009444	0	1000
-57.869472917840163	-62.827095916859889	0	1000
-57.740522750655458	-65.773086472516042	0	1000
-39.025158940730243	-48.841959109465932	0	1000
-39.667946550416787	-49.608003552584911	0	1000
-39.829132101635203	-50.778160105338699	0	1000
-51.823682643436555	-67.900116306287146	0	1000
-54.747308944488942	-68.284691073305098	0	1000
-32.549038105676679	-53.376587736527398	0	1000
-33.049038105676679	-54.242613140311839	0	1000
-34.093496878133948	-54.794295125255417	0	1000
-46.080494878150859	-71.921539672893957	0	1000
-45.441937862341462	-74.800382050863419	0	1000
-29.950961894323367	-54.876587736527398	0	1000
-30.450961894323367	-55.742613140311839	0	1000
-30.406503121866102	-56.922981962937129	0	1000
-39.245632996941154	-75.867649019884297	0	1000
-42.058062137658602	-76.754063611413315	0	1000
-22.785797889033194	-58.217758584130756	0	1000
-23.127818032358864	-59.157451204916669	0	1000
-24.060610557839269	-59.882120263371711	0	1000
-32.891384319444455	-78.830683840022303	0	1000
-31.762622686810293	-81.554905871414988	0	1000
-19.966720026675471	-59.243819014107764	0	1000
-20.308740170001141	-60.183511634893677	0	1000
-20.059987931172074	-61.338227818010445	0	1000
-25.475124651082218	-81.529981608895099	0	1000
-28.090902395181836	-82.891302766118969	0	1000
-12.330222733701454	-61.290012296762605	0	1000
-12.503870911368384	-62.274820049774817	0	1000
-13.296654761000992	-63.150457479100403	0	1000
-18.702885692035206	-83.344597568922325	0	1000
-17.11821629360292	-85.83142514583723	0	1000
-9.3757994746648308	-61.810956829763391	0	1000
-9.5494476523317608	-62.795764582775604	0	1000
-9.1039601580330114	-63.889742659474429	0	1000
-10.930567533735154	-84.71506696288094	0	1000
-13.270214798109878	-86.509931631299182	0	1000
-1.5000000000000078	-62.5	0	1000
-1.5000000000000078	-63.5	0	1000
-2.1286868376817205	-64.5	0	1000
-3.9461093469903474	-85.326127875091956	0	1000
-1.9536815605498998	-87.5	0	1000
1.4999999999999922	-62.5	0	1000
1.4999999999999922	-63.5	0	1000
2.1286868376817045	-64.5	0	1000
3.946109346990327	-85.326127875091956	0	1000
1.9536815605498785	-87.5	0	1000
9.3757994746648148	-61.810956829763398	0	1000
9.5494476523317449	-62.795764582775611	0	1000
9.1039601580329972	-63.889742659474429	0	1000
10.930567533735132	-84.715066962880954	0	1000
13.270214798109858	-86.509931631299182	0	1000
12.330222733701438	-61.290012296762612	0	1000
12.50387091136837	-62.274820049774824	0	1000
13.296654761000978	-63.15045747910041	0	1000
18.702885692035185	-83.344597568922339	0	1000
17.118216293602899	-85.83142514583723	0	1000
19.9667200266754	-59.243819014107785	0	1000
20.308740170001069	-60.183511634893698	0	1000
20.059987931172003	-61.338227818010459	0	1000
25.475124651082126	-81.529981608895113	0	1000
28.09090239518174	-82.891302766118983	0	1000
22.785797889033123	-58.217758584130777	0	1000
23.127818032358793	-59.15745120491669	0	1000
24.060610557839198	-59.882120263371732	0	1000
32.891384319444363	-78.830683840022331	0	1000
31.762622686810197	-81.554905871415016	0	1000
29.950961894323353	-54.876587736527412	0	1000
30.450961894323353	-55.742613140311853	0	1000
30.406503121866084	-56.922981962937143	0	1000
39.245632996941133	-75.867649019884325	0	1000
42.058062137658581	-76.754063611413315	0	1000
32.549038105676665	-53.376587736527412	0	1000
33.049038105676665	-54.242613140311853	0	1000
34.093496878133934	-54.794295125255431	0	1000
46.080494878150844	-71.921539672893985	0	1000
45.44193786234144	-74.800382050863433	0	1000
39.025158940730236	-48.84195910946594	0	1000
39.667946550416779	-49.608003552584918	0	1000
39.829132101635196	-50.778160105338706	0	1000
51.823682643436541	-67.90011630628716	0	1000
54.747308944488928	-68.284691073305112	0	1000
41.323292270087173	-46.913596280406324	0	1000
41.966079879773716	-47.679640723525303	0	1000
43.090469547928372	-48.041573057009458	0	1000
57.869472917840156	-62.827095916859896	0	1000
57.740522750655444	-65.773086472516056	0	1000
46.91359628040631	-41.323292270087187	0	1000
47.679640723525289	-41.96607987977373	0	1000
48.041573057009437	-43.090469547928386	0	1000
62.827095916859875	-57.86947291784017	0	1000
65.773086472516027	-57.740522750655465	0	1000
48.841959109465925	-39.02515894073025	0	1000
49.608003552584904	-39.667946550416794	0	1000
50.778160105338692	-39.82913210163521	0	1000
67.900116306287131	-51.823682643436563	0	1000
68.284691073305098	-54.74730894448895	0	1000
53.376587736527398	-32.549038105676679	0	1000
54.242613140311839	-33.049038105676679	0	1000
54.794295125255417	-34.093496878133948	0	1000
71.921539672893957	-46.080494878150859	0	1000
74.800382050863419	-45.441937862341462	0	1000
54.876587736527398	-29.950961894323367	0	1000
55.742613140311839	-30.450961894323367	0	1000
56.922981962937129	-30.406503121866102	0	1000
75.867649019884297	-39.245632996941154	0	1000
76.754063611413315	-42.058062137658602	0	1000
58.21775858413077	-22.785797889033145	0	1000
59.157451204916683	-23.127818032358814	0	1000
59.882120263371732	-24.060610557839219	0	1000
78.830683840022331	-32.891384319444391	0	1000
81.554905871415002	-31.762622686810225	0	1000
59.243819014107778	-19.966720026675421	0	1000
60.183511634893691	-20.308740170001091	0	1000
61.338227818010459	-20.059987931172024	0	1000
81.529981608895113	-25.475124651082151	0	1000
82.891302766118983	-28.090902395181768	0	1000
61.290012296762598	-12.330222733701513	0	1000
62.27482004977481	-12.503870911368445	0	1000
63.150457479100396	-13.296654761001053	0	1000
83.34459756892231	-18.702885692035284	0	1000
85.831425145837215	-17.118216293603002	0	1000
62.795764582775604	-9.5494476523318212	0	1000
63.889742659474422	-9.1039601580330718	0	1000
84.715066962880954	-10.930567533735235	0	1000
86.509931631299168	-13.270214798109961	0	1000
100	0	0	1000
-100	0	0	1000
[NumSegments] = 216
0	1	-1	0	0	1000
2	3	-1	0	0	1000
5	6	-1	0	0	1000
7	8	-1	0	0	1000
4	9	-1	0	0	1000
1	6	-1	0	0	1000
11	12	-1	0	0	1000
13	14	-1	0	0	1000
16	17	-1	0	0	1000
18	19	-1	0	0	1000
15	20	-1	0	0	1000
12	17	-1	0	0	1000
21	22	-1	0	0	1000
23	24	-1	0	0	1000
26	27	-1	0	0	1000
28	29	-1	0	0	1000
25	30	-1	0	0	1000
22	27	-1	0	0	1000
31	32	-1	0	0	1000
33	34	-1	0	0	1000
36	37	-1	0	0	1000
38	39	-1	0	0	1000
35	40	-1	0	0	1000
32	37	-1	0	0	1000
41	42	-1	0	0	1000
43	44	-1	0	0	1000
46	47	-1	0	0	1000
48	49	-1	0	0	1000
45	50	-1	0	0	1000
42	47	-1	0	0	1000
51	52	-1	0	0	1000
53	54	-1	0	0	1000
56	57	-1	0	0	1000
58	59	-1	0	0	1000
55	60	-1	0	0	1000
52	57	-1	0	0	1000
61	62	-1	0	0	1000
63	64	-1	0	0	1000
66	67	-1	0	0	1000
68	69	-1	0	0	1000
65	70	-1	0	0	1000
62	67	-1	0	0	1000
71	72	-1	0	0	1000
73	74	-1	0	0	1000
76	77	-1	0	0	1000
78	79	-1	0	0	1000
75	80	-1	0	0	1000
72	77	-1	0	0	1000
81	82	-1	0	0	1000
83	84	-1	0	0	1000
86	87	-1	0	0	1000
88	89	-1	0	0	1000
85	90	-1	0	0	1000
82	87	-1	0	0	1000
91	92	-1	0	0	1000
93	94	-1	0	0	1000
96	97	-1	0	0	1000
98	99	-1	0	0	1000
95	100	-1	0	0	1000
92	97	-1	0	0	1000
101	102	-1	0	0	1000
103	104	-1	0	0	1000
106	107	-1	0	0	1000
108	109	-1	0	0	1000
105	110	-1	0	0	1000
102	107	-1	0	0	1000
111	112	-1	0	0	1000
113	114	-1	0	0	1000
116	117	-1	0	0	1000
118	119	-1	0	0	1000
115	120	-1	0	0	1000
112	117	-1	0	0	1000
121	122	-1	0	0	1000
123	124	-1	0	0	1000
126	127	-1	0	0	1000
128	129	-1	0	0	1000
125	130	-1	0	0	1000
122	127	-1	0	0	1000
131	132	-1	0	0	1000
133	134	-1	0	0	1000
136	137	-1	0	0	1000
138	139	-1	0	0	1000
135	140	-1	0	0	1000
132	137	-1	0	0	1000
141	142	-1	0	0	1000
143	144	-1	0	0	1000
146	147	-1	0	0	1000
148	149	-1	0	0	1000
145	150	-1	0	0	1000
142	147	-1	0	0	1000
151	152	-1	0	0	1000
153	154	-1	0	0	1000
156	157	-1	0	0	1000
158	159	-1	0	0	1000
155	160	-1	0	0	1000
152	157	-1	0	0	1000
161	162	-1	0	0	1000
163	164	-1	0	0	1000
166	167	-1	0	0	1000
168	169	-1	0	0	1000
165	170	-1	0	0	1000
162	167	-1	0	0	1000
171	172	-1	0	0	1000
173	174	-1	0	0	1000
176	177	-1	0	0	1000
178	179	-1	0	0	1000
175	180	-1	0	0	1000
172	177	-1	0	0	1000
181	182	-1	0	0	1000
183	184	-1	0	0	1000
186	187	-1	0	0	1000
188	189	-1	0	0	1000
185	190	-1	0	0	1000
182	187	-1	0	0	1000
191	192	-1	0	0	1000
193	194	-1	0	0	1000
196	197	-1	0	0	1000
198	199	-1	0	0	1000
195	200	-1	0	0	1000
192	197	-1	0	0	1000
201	202	-1	0	0	1000
203	204	-1	0	0	1000
206	207	-1	0	0	1000
208	209	-1	0	0	1000
205	210	-1	0	0	1000
202	207	-1	0	0	1000
211	212	-1	0	0	1000
213	214	-1	0	0	1000
216	217	-1	0	0	1000
218	219	-1	0	0	1000
215	220	-1	0	0	1000
212	217	-1	0	0	1000
221	222	-1	0	0	1000
223	224	-1	0	0	1000
226	227	-1	0	0	1000
228	229	-1	0	0	1000
225	230	-1	0	0	1000
222	227	-1	0	0	1000
231	232	-1	0	0	1000
233	234	-1	0	0	1000
236	237	-1	0	0	1000
238	239	-1	0	0	1000
235	240	-1	0	0	1000
232	237	-1	0	0	1000
241	242	-1	0	0	1000
243	244	-1	0	0	1000
246	247	-1	0	0	1000
248	249	-1	0	0	1000
245	250	-1	0	0	1000
242	247	-1	0	0	1000
251	252	-1	0	0	1000
253	254	-1	0	0	1000
256	257	-1	0	0	1000
258	259	-1	0	0	1000
255	260	-1	0	0	1000
252	257	-1	0	0	1000
261	262	-1	0	0	1000
263	264	-1	0	0	1000
266	267	-1	0	0	1000
268	269	-1	0	0	1000
265	270	-1	0	0	1000
262	267	-1	0	0	1000
271	272	-1	0	0	1000
273	274	-1	0	0	1000
276	277	-1	0	0	1000
278	279	-1	0	0	1000
275	280	-1	0	0	1000
272	277	-1	0	0	1000
281	282	-1	0	0	1000
283	284	-1	0	0	1000
286	287	-1	0	0	1000
288	289	-1	0	0	1000
285	290	-1	0	0	1000
282	287	-1	0	0	1000
291	292	-1	0	0	1000
293	294	-1	0	0	1000
296	297	-1	0	0	1000
298	299	-1	0	0	1000
295	300	-1	0	0	1000
292	297	-1	0	0	1000
301	302	-1	0	0	1000
303	304	-1	0	0	1000
306	307	-1	0	0	1000
308	309	-1	0	0	1000
305	310	-1	0	0	1000
302	307	-1	0	0	1000
311	312	-1	0	0	1000
313	314	-1	0	0	1000
316	317	-1	0	0	1000
318	319	-1	0	0	1000
315	320	-1	0	0	1000
312	317	-1	0	0	1000
321	322	-1	0	0	1000
323	324	-1	0	0	1000
326	327	-1	0	0	1000
328	329	-1	0	0	1000
325	330	-1	0	0	1000
322	327	-1	0	0	1000
331	332	-1	0	0	1000
333	334	-1	0	0	1000
336	337	-1	0	0	1000
338	339	-1	0	0	1000
335	340	-1	0	0	1000
332	337	-1	0	0	1000
341	342	-1	0	0	1000
343	344	-1	0	0	1000
346	347	-1	0	0	1000
348	349	-1	0	0	1000
345	350	-1	0	0	1000
342	347	-1	0	0	1000
351	352	-1	0	0	1000
353	354	-1	0	0	1000
10	356	-1	0	0	1000
357	358	-1	0	0	1000
355	359	-1	0	0	1000
352	356	-1	0	0	1000
[NumArcSegments] = 218
1	2	30	5	0	0	1000
3	4	94.987365288755001	5	0	0	1000
7	6	30	5	0	0	1000
9	8	94.987365288755001	5	0	0	1000
10	0	7.2503304388611882	1	0	0	1000
0	5	2.7496695611388109	5	0	0	1000
12	13	30	5	0	0	1000
14	15	94.987365288755001	5	0	0	1000
18	17	30	5	0	0	1000
20	19	94.987365288755001	5	0	0	1000
5	11	7.2503304388611882	1	0	0	1000
11	16	2.7496695611388109	5	0	0	1000
22	23	30	5	0	0	1000
24	25	94.987365288755001	5	0	0	1000
28	27	30	5	0	0	1000
30	29	94.987365288755001	5	0	0	1000
16	21	7.2503304388611882	1	0	0	1000
21	26	2.7496695611388109	5	0	0	1000
32	33	30	5	0	0	1000
34	35	94.987365288755001	5	0	0	1000
38	37	30	5	0	0	1000
40	39	94.987365288755001	5	0	0	1000
26	31	7.2503304388611882	1	0	0	1000
31	36	2.7496695611388109	5	0	0	1000
42	43	30	5	0	0	1000
44	45	94.987365288755001	5	0	0	1000
48	47	30	5	0	0	1000
50	49	94.987365288755001	5	0	0	1000
36	41	7.2503304388611882	1	0	0	1000
41	46	2.7496695611388109	5	0	0	1000
52	53	30	5	0	0	1000
54	55	94.987365288755001	5	0	0	1000
58	57	30	5	0	0	1000
60	59	94.987365288755001	5	0	0	1000
46	51	7.2503304388611882	1	0	0	1000
51	56	2.7496695611388109	5	0	0	1000
62	63	30	5	0	0	1000
64	65	94.987365288755001	5	0	0	1000
68	67	30	5	0	0	1000
70	69	94.987365288755001	5	0	0	1000
56	61	7.2503304388611882	1	0	0	1000
61	66	2.7496695611388109	5	0	0	1000
72	73	30	5	0	0	1000
74	75	94.987365288755001	5	0	0	1000
78	77	30	5	0	0	1000
80	79	94.987365288755001	5	0	0	1000
66	71	7.2503304388611882	1	0	0	1000
71	76	2.7496695611388109	5	0	0	1000
82	83	30	5	0	0	1000
84	85	94.987365288755001	5	0	0	1000
88	87	30	5	0	0	1000
90	89	94.987365288755001	5	0	0	1000
76	81	7.2503304388611882	1	0	0	1000
81	86	2.7496695611388109	5	0	0	1000
92	93	30	5	0	0	1000
94	95	94.987365288755001	5	0	0	1000
98	97	30	5	0	0	1000
100	99	94.987365288755001	5	0	0	1000
86	91	7.2503304388611882	1	0	0	1000
91	96	2.7496695611388109	5	0	0	1000
102	103	30	5	0	0	1000
104	105	94.987365288755001	5	0	0	1000
108	107	30	5	0	0	1000
110	109	94.987365288755001	5	0	0	1000
96	101	7.2503304388611882	1	0	0	1000
101	106	2.7496695611388109	5	0	0	1000
112	113	30	5	0	0	1000
114	115	94.987365288755001	5	0	0	1000
118	117	30	5	0	0	1000
120	119	94.987365288755001	5	0	0	1000
106	111	7.2503304388611882	1	0	0	1000
111	116	2.7496695611388109	5	0	0	1000
122	123	30	5	0	0	1000
124	125	94.987365288755001	5	0	0	1000
128	127	30	5	0	0	1000
130	129	94.987365288755001	5	0	0	1000
116	121	7.2503304388611882	1	0	0	1000
121	126	2.7496695611388109	5	0	0	1000
132	133	30	5	0	0	1000
134	135	94.987365288755001	5	0	0	1000
138	137	30	5	0	0	1000
140	139	94.987365288755001	5	0	0	1000
126	131	7.2503304388611882	1	0	0	1000
131	136	2.7496695611388109	5	0	0	1000
142	143	30	5	0	0	1000
144	145	94.987365288755001	5	0	0	1000
148	147	30	5	0	0	1000
150	149	94.987365288755001	5	0	0	1000
136	141	7.2503304388611882	1	0	0	1000
141	146	2.7496695611388109	5	0	0	1000
152	153	30	5	0	0	1000
154	155	94.987365288755001	5	0	0	1000
158	157	30	5	0	0	1000
160	159	94.987365288755001	5	0	0	1000
146	151	7.2503304388611882	1	0	0	1000
151	156	2.7496695611388109	5	0	0	1000
162	163	30	5	0	0	1000
164	165	94.987365288755001	5	0	0	1000
168	167	30	5	0	0	1000
170	169	94.987365288755001	5	0	0	1000
156	161	7.2503304388611882	1	0	0	1000
161	166	2.7496695611388109	5	0	0	1000
172	173	30	5	0	0	1000
174	175	94.987365288755001	5	0	0	1000
178	177	30	5	0	0	1000
180	179	94.987365288755001	5	0	0	1000
166	171	7.2503304388611882	1	0	0	1000
171	176	2.7496695611388109	5	0	0	1000
182	183	30	5	0	0	1000
184	185	94.987365288755001	5	0	0	1000
188	187	30	5	0	0	1000
190	189	94.987365288755001	5	0	0	1000
176	181	7.2503304388611882	1	0	0	1000
181	186	2.7496695611388109	5	0	0	1000
192	193	30	5	0	0	1000
194	195	94.987365288755001	5	0	0	1000
198	197	30	5	0	0	1000
200	199	94.987365288755001	5	0	0	1000
186	191	7.2503304388611882	1	0	0	1000
191	196	2.7496695611388109	5	0	0	1000
202	203	30	5	0	0	1000
204	205	94.987365288755001	5	0	0	1000
208	207	30	5	0	0	1000
210	209	94.987365288755001	5	0	0	1000
196	201	7.2503304388611882	1	0	0	1000
201	206	2.7496695611388109	5	0	0	1000
212	213	30	5	0	0	1000
214	215	94.987365288755001	5	0	0	1000
218	217	30	5	0	0	1000
220	219	94.987365288755001	5	0	0	1000
206	211	7.2503304388611882	1	0	0	1000
211	216	2.7496695611388109	5	0	0	1000
222	223	30	5	0	0	1000
224	225	94.987365288755001	5	0	0	1000
228	227	30	5	0	0	1000
230	229	94.987365288755001	5	0	0	1000
216	221	7.2503304388611882	1	0	0	1000
221	226	2.7496695611388109	5	0	0	1000
232	233	30	5	0	0	1000
234	235	94.987365288755001	5	0	0	1000
238	237	30	5	0	0	1000
240	239	94.987365288755001	5	0	0	1000
226	231	7.2503304388611882	1	0	0	1000
231	236	2.7496695611388109	5	0	0	1000
242	243	30	5	0	0	1000
244	245	94.987365288755001	5	0	0	1000
248	247	30	5	0	0	1000
250	249	94.987365288755001	5	0	0	1000
236	241	7.2503304388611882	1	0	0	1000
241	246	2.7496695611388109	5	0	0	1000
252	253	30	5	0	0	1000
254	255	94.987365288755001	5	0	0	1000
258	257	30	5	0	0	1000
260	259	94.987365288755001	5	0	0	1000
246	251	7.2503304388611882	1	0	0	1000
251	256	2.7496695611388109	5	0	0	1000
262	263	30	5	0	0	1000
264	265	94.987365288755001	5	0	0	1000
268	267	30	5	0	0	1000
270	269	94.987365288755001	5	0	0	1000
256	261	7.2503304388611882	1	0	0	1000
261	266	2.7496695611388109	5	0	0	1000
272	273	30	5	0	0	1000
274	275	94.987365288755001	5	0	0	1000
278	277	30	5	0	0	1000
280	279	94.987365288755001	5	0	0	1000
266	271	7.2503304388611882	1	0	0	1000
271	276	2.7496695611388109	5	0	0	1000
282	283	30	5	0	0	1000
284	285	94.987365288755001	5	0	0	1000
288	287	30	5	0	0	1000
290	289	94.987365288755001	5	0	0	1000
276	281	7.2503304388611882	1	0	0	1000
281	286	2.7496695611388109	5	0	0	1000
292	293	30	5	0	0	1000
294	295	94.987365288755001	5	0	0	1000
298	297	30	5	0	0	1000
300	299	94.987365288755001	5	0	0	1000
286	291	7.2503304388611882	1	0	0	1000
291	296	2.7496695611388109	5	0	0	1000
302	303	30	5	0	0	1000
304	305	94.987365288755001	5	0	0	1000
308	307	30	5	0	0	1000
310	309	94.987365288755001	5	0	0	1000
296	301	7.2503304388611882	1	0	0	1000
301	306	2.7496695611388109	5	0	0	1000
312	313	30	5	0	0	1000
314	315	94.987365288755001	5	0	0	1000