[Format]      =  3.3
[Frequency]   =  0
[Precision]   =  1e-008
[Depth]       =  40
[LengthUnits] =  millimeters
[ProblemType] =  planar
[Coordinates] =  cartesian
[Comment]     =  "Add comments here."
[PointProps]   = 0
[BdryProps]   = 6
  <BeginBdry>
    <BdryName> = "Azero"
    <BdryType> = 0
    <A_0> = 0
    <A_1> = 0
    <A_2> = 0
    <Phi> = 0
    <c0> = 0
    <c1> = 0
    <Mu_ssd> = 0
    <Sigma_ssd> = 0
  <EndBdry>
  <BeginBdry>
    <BdryName> = "Az_per1"
    <BdryType> = 4
    <A_0> = 0
    <A_1> = 0
    <A_2> = 0
    <Phi> = 0
    <c0> = 0
    <c1> = 0
    <Mu_ssd> = 0
    <Sigma_ssd> = 0
  <EndBdry>
  <BeginBdry>
    <BdryName> = "Az_per2"
    <BdryType> = 4
    <A_0> = 0
    <A_1> = 0
    <A_2> = 0
    <Phi> = 0
    <c0> = 0
    <c1> = 0
    <Mu_ssd> = 0
    <Sigma_ssd> = 0
  <EndBdry>
  <BeginBdry>
    <BdryName> = "Az_per3"
    <BdryType> = 4
    <A_0> = 0
    <A_1> = 0
    <A_2> = 0
    <Phi> = 0
    <c0> = 0
    <c1> = 0
    <Mu_ssd> = 0
    <Sigma_ssd> = 0
  <EndBdry>
  <BeginBdry>
    <BdryName> = "Az_per4"
    <BdryType> = 4
    <A_0> = 0
    <A_1> = 0
    <A_2> = 0
    <Phi> = 0
    <c0> = 0
    <c1> = 0
    <Mu_ssd> = 0
    <Sigma_ssd> = 0
  <EndBdry>
  <BeginBdry>
    <BdryName> = "Az_per5"
    <BdryType> = 4
    <A_0> = 0
    <A_1> = 0
    <A_2> = 0
    <Phi> = 0
    <c0> = 0
    <c1> = 0
    <Mu_ssd> = 0
    <Sigma_ssd> = 0
  <EndBdry>
[BlockProps]  = 42
  <BeginBlock>
    <BlockName> = "Air"
    <Mu_x> = 1
    <Mu_y> = 1
    <H_c> = 0
    <H_cAngle> = 0
    <J_re> = 0
    <J_im> = 0
    <Sigma> = 0
    <d_lam> = 0
    <Phi_h> = 0
    <Phi_hx> = 0
    <Phi_hy> = 0
    <LamType> = 0
    <LamFill> = 1
    <BHPoints> = 0
  <EndBlock>
  <BeginBlock>
    <BlockName> = "Cu"
    <Mu_x> = 1
    <Mu_y> = 1
    <H_c> = 0
    <H_cAngle> = 0
    <J_re> = 0
    <J_im> = 0
    <Sigma> = 54
    <d_lam> = 0
    <Phi_h> = 0
    <Phi_hx> = 0
    <Phi_hy> = 0
    <LamType> = 0
    <LamFill> = 1
    <BHPoints> = 0
  <EndBlock>
  <BeginBlock>
    <BlockName> = "Iron"
    <Mu_x> = 5000
    <Mu_y> = 5000
    <H_c> = 0
    <H_cAngle> = 0
    <J_re> = 0
    <J_im> = 0
    <Sigma> = 0
    <d_lam> = 0
    <Phi_h> = 0
    <Phi_hx> = 0
    <Phi_hy> = 0
    <LamType> = 0
    <LamFill> = 1
    <BHPoints> = 0
  <EndBlock>
  <BeginBlock>
    <BlockName> = "iIron"
    <Mu_x> = 1000000
    <Mu_y> = 1000000
    <H_c> = 0
    <H_cAngle> = 0
    <J_re> = 0
    <J_im> = 0
    <Sigma> = 0
    <d_lam> = 0
    <Phi_h> = 0
    <Phi_hx> = 0
    <Phi_hy> = 0
    <LamType> = 0
    <LamFill> = 1
    <BHPoints> = 0
  <EndBlock>
  <BeginBlock>
    <BlockName> = "Magnet"
    <Mu_x> = 1.0800000000000001
    <Mu_y> = 1.0800000000000001
    <H_c> = 666800
    <H_cAngle> = 0
    <J_re> = 0
    <J_im> = 0
    <Sigma> = 0.66700000000000004
    <d_lam> = 0
    <Phi_h> = 0
    <Phi_hx> = 0
    <Phi_hy> = 0
    <LamType> = 0
    <LamFill> = 1
    <BHPoints> = 0
  <EndBlock>
  <BeginBlock>
    <BlockName> = "Terni"
    <Mu_x> = 7000
    <Mu_y> = 7000
    <H_c> = 0
    <H_cAngle> = 0
    <J_re> = 0
    <J_im> = 0
    <Sigma> = 3
    <d_lam> = 0
    <Phi_h> = 0
    <Phi_hx> = 0
    <Phi_hy> = 0
    <LamType> = 0
    <LamFill> = 1
    <BHPoints> = 36
      0	0
      0.40000000000000002	75
      0.52000000000000002	85
      0.56999999999999995	90
      0.65000000000000002	100
      0.69999999999999996	110
      0.80000000000000004	125
      0.90000000000000002	145
      0.94999999999999996	160
      1	170
      1.05	185
      1.1000000000000001	200
      1.1799999999999999	250
      1.25	300
      1.3	360
      1.3300000000000001	400
      1.3700000000000001	500
      1.3999999999999999	600
      1.4299999999999999	700
      1.47	900
      1.48	1000
      1.54	1500
      1.5800000000000001	2000
      1.605	2500
      1.6299999999999999	3000
      1.6699999999999999	4000
      1.7	5000
      1.74	6000
      1.78	8000
      1.8100000000000001	10000
      1.8799999999999999	15000
      1.9299999999999999	20000
      2	30000
      2.004	33000
      2.0750000000000002	90000
      3	1335600
  <EndBlock>
  <BeginBlock>
    <BlockName> = "Cu1"
    <Mu_x> = 1
    <Mu_y> = 1
    <H_c> = 0
    <H_cAngle> = 0
    <J_re> = 0
    <J_im> = 0
    <Sigma> = 0
    <d_lam> = 0
    <Phi_h> = 0
    <Phi_hx> = 0
    <Phi_hy> = 0
    <LamType> = 0
    <LamFill> = 1
    <BHPoints> = 0
  <EndBlock>
  <BeginBlock>
    <BlockName> = "Cu2"
    <Mu_x> = 1
    <Mu_y> = 1
    <H_c> = 0
    <H_cAngle> = 0
    <J_re> = 0
    <J_im> = 0
    <Sigma> = 0
    <d_lam> = 0
    <Phi_h> = 0
    <Phi_hx> = 0
    <Phi_hy> = 0
    <LamType> = 0
    <LamFill> = 1
    <BHPoints> = 0
  <EndBlock>
  <BeginBlock>
    <BlockName> = "Cu3"
    <Mu_x> = 1
    <Mu_y> = 1
    <H_c> = 0
    <H_cAngle> = 0
    <J_re> = 0
    <J_im> = 0
    <Sigma> = 0
    <d_lam> = 0
    <Phi_h> = 0
    <Phi_hx> = 0
    <Phi_hy> = 0
    <LamType> = 0
    <LamFill> = 1
    <BHPoints> = 0
  <EndBlock>
  <BeginBlock>
    <BlockName> = "Cu4"
    <Mu_x> = 1
    <Mu_y> = 1
    <H_c> = 0
    <H_cAngle> = 0
    <J_re> = 0
    <J_im> = 0
    <Sigma> = 0
    <d_lam> = 0
    <Phi_h> = 0
    <Phi_hx> = 0
    <Phi_hy> = 0
    <LamType> = 0
    <LamFill> = 1
    <BHPoints> = 0
  <EndBlock>
  <BeginBlock>
    <BlockName> = "Cu5"
    <Mu_x> = 1
    <Mu_y> = 1
    <H_c> = 0
    <H_cAngle> = 0
    <J_re> = 0
    <J_im> = 0
    <Sigma> = 0
    <d_lam> = 0
    <Phi_h> = 0
    <Phi_hx> = 0
    <Phi_hy> = 0
    <LamType> = 0
    <LamFill> = 1
    <BHPoints> = 0
  <EndBlock>
  <BeginBlock>
    <BlockName> = "Cu6"
    <Mu_x> = 1
    <Mu_y> = 1
    <H_c> = 0
    <H_cAngle> = 0
    <J_re> = 0
    <J_im> = 0
    <Sigma> = 0
    <d_lam> = 0
    <Phi_h> = 0
    <Phi_hx> = 0
    <Phi_hy> = 0
    <LamType> = 0
    <LamFill> = 1
    <BHPoints> = 0
  <EndBlock>
  <BeginBlock>
    <BlockName> = "Cu7"
    <Mu_x> = 1
    <Mu_y> = 1
    <H_c> = 0
    <H_cAngle> = 0
    <J_re> = 0
    <J_im> = 0
    <Sigma> = 0
    <d_lam> = 0
    <Phi_h> = 0
    <Phi_hx> = 0
    <Phi_hy> = 0
    <LamType> = 0
    <LamFill> = 1
    <BHPoints> = 0
  <EndBlock>
  <BeginBlock>
    <BlockName> = "Cu8"
    <Mu_x> = 1
    <Mu_y> = 1
    <H_c> = 0
    <H_cAngle> = 0
    <J_re> = 0
    <J_im> = 0
    <Sigma> = 0
    <d_lam> = 0
    <Phi_h> = 0
    <Phi_hx> = 0
    <Phi_hy> = 0
    <LamType> = 0
    <LamFill> = 1
    <BHPoints> = 0
  <EndBlock>
  <BeginBlock>
    <BlockName> = "Cu9"
    <Mu_x> = 1
    <Mu_y> = 1
    <H_c> = 0
    <H_cAngle> = 0
    <J_re> = 0
    <J_im> = 0
    <Sigma> = 0
    <d_lam> = 0
    <Phi_h> = 0
    <Phi_hx> = 0
    <Phi_hy> = 0
    <LamType> = 0
    <LamFill> = 1
    <BHPoints> = 0
  <EndBlock>
  <BeginBlock>
    <BlockName> = "Cu10"
    <Mu_x> = 1
    <Mu_y> = 1
    <H_c> = 0
    <H_cAngle> = 0
    <J_re> = 0
    <J_im> = 0
    <Sigma> = 0
    <d_lam> = 0
    <Phi_h> = 0
    <Phi_hx> = 0
    <Phi_hy> = 0
    <LamType> = 0
    <LamFill> = 1
    <BHPoints> = 0
  <EndBlock>
  <BeginBlock>
    <BlockName> = "Cu11"
    <Mu_x> = 1
    <Mu_y> = 1
    <H_c> = 0
    <H_cAngle> = 0
    <J_re> = 0
    <J_im> = 0
    <Sigma> = 0
    <d_lam> = 0
    <Phi_h> = 0
    <Phi_hx> = 0
    <Phi_hy> = 0
    <LamType> = 0
    <LamFill> = 1
    <BHPoints> = 0
  <EndBlock>
  <BeginBlock>
    <BlockName> = "Cu12"
    <Mu_x> = 1
    <Mu_y> = 1
    <H_c> = 0
    <H_cAngle> = 0
    <J_re> = 0
    <J_im> = 0
    <Sigma> = 0
    <d_lam> = 0
    <Phi_h> = 0
    <Phi_hx> = 0
    <Phi_hy> = 0
    <LamType> = 0
    <LamFill> = 1
    <BHPoints> = 0
  <EndBlock>
  <BeginBlock>
    <BlockName> = "Cu13"
    <Mu_x> = 1
    <Mu_y> = 1
    <H_c> = 0
    <H_cAngle> = 0
    <J_re> = 0
    <J_im> = 0
    <Sigma> = 0
    <d_lam> = 0
    <Phi_h> = 0
    <Phi_hx> = 0
    <Phi_hy> = 0
    <LamType> = 0
    <LamFill> = 1
    <BHPoints> = 0
  <EndBlock>
  <BeginBlock>
    <BlockName> = "Cu14"
    <Mu_x> = 1
    <Mu_y> = 1
    <H_c> = 0
    <H_cAngle> = 0
    <J_re> = 0
    <J_im> = 0
    <Sigma> = 0
    <d_lam> = 0
    <Phi_h> = 0
    <Phi_hx> = 0
    <Phi_hy> = 0
    <LamType> = 0
    <LamFill> = 1
    <BHPoints> = 0
  <EndBlock>
  <BeginBlock>
    <BlockName> = "Cu15"
    <Mu_x> = 1
    <Mu_y> = 1
    <H_c> = 0
    <H_cAngle> = 0
    <J_re> = 0
    <J_im> = 0
    <Sigma> = 0
    <d_lam> = 0
    <Phi_h> = 0
    <Phi_hx> = 0
    <Phi_hy> = 0
    <LamType> = 0
    <LamFill> = 1
    <BHPoints> = 0
  <EndBlock>
  <BeginBlock>
    <BlockName> = "Cu16"
    <Mu_x> = 1
    <Mu_y> = 1
    <H_c> = 0
    <H_cAngle> = 0
    <J_re> = 0
    <J_im> = 0
    <Sigma> = 0
    <d_lam> = 0
    <Phi_h> = 0
    <Phi_hx> = 0
    <Phi_hy> = 0
    <LamType> = 0
    <LamFill> = 1
    <BHPoints> = 0
  <EndBlock>
  <BeginBlock>
    <BlockName> = "Cu17"
    <Mu_x> = 1
    <Mu_y> = 1
    <H_c> = 0
    <H_cAngle> = 0
    <J_re> = 0
    <J_im> = 0
    <Sigma> = 0
    <d_lam> = 0
    <Phi_h> = 0
    <Phi_hx> = 0
    <Phi_hy> = 0
    <LamType> = 0
    <LamFill> = 1
    <BHPoints> = 0
  <EndBlock>
  <BeginBlock>
    <BlockName> = "Cu18"
    <Mu_x> = 1
    <Mu_y> = 1
    <H_c> = 0
    <H_cAngle> = 0
    <J_re> = 0
    <J_im> = 0
    <Sigma> = 0
    <d_lam> = 0
    <Phi_h> = 0
    <Phi_hx> = 0
    <Phi_hy> = 0
    <LamType> = 0
    <LamFill> = 1
    <BHPoints> = 0
  <EndBlock>
  <BeginBlock>
    <BlockName> = "Cu19"
    <Mu_x> = 1
    <Mu_y> = 1
    <H_c> = 0
    <H_cAngle> = 0
    <J_re> = 0
    <J_im> = 0
    <Sigma> = 0
    <d_lam> = 0
    <Phi_h> = 0
    <Phi_hx> = 0
    <Phi_hy> = 0
    <LamType> = 0
    <LamFill> = 1
    <BHPoints> = 0
  <EndBlock>
  <BeginBlock>
    <BlockName> = "Cu20"
    <Mu_x> = 1
    <Mu_y> = 1
    <H_c> = 0
    <H_cAngle> = 0
    <J_re> = 0
    <J_im> = 0
    <Sigma> = 0
    <d_lam> = 0
    <Phi_h> = 0
    <Phi_hx> = 0
    <Phi_hy> = 0
    <LamType> = 0
    <LamFill> = 1
    <BHPoints> = 0
  <EndBlock>
  <BeginBlock>
    <BlockName> = "Cu21"
    <Mu_x> = 1
    <Mu_y> = 1
    <H_c> = 0
    <H_cAngle> = 0
    <J_re> = 0
    <J_im> = 0
    <Sigma> = 0
    <d_lam> = 0
    <Phi_h> = 0
    <Phi_hx> = 0
    <Phi_hy> = 0
    <LamType> = 0
    <LamFill> = 1
    <BHPoints> = 0
  <EndBlock>
  <BeginBlock>
    <BlockName> = "Cu22"
    <Mu_x> = 1
    <Mu_y> = 1
    <H_c> = 0
    <H_cAngle> = 0
    <J_re> = 0
    <J_im> = 0
    <Sigma> = 0
    <d_lam> = 0
    <Phi_h> = 0
    <Phi_hx> = 0
    <Phi_hy> = 0
    <LamType> = 0
    <LamFill> = 1
    <BHPoints> = 0
  <EndBlock>
  <BeginBlock>
    <BlockName> = "Cu23"
    <Mu_x> = 1
    <Mu_y> = 1
    <H_c> = 0
    <H_cAngle> = 0
    <J_re> = 0
    <J_im> = 0
    <Sigma> = 0
    <d_lam> = 0
    <Phi_h> = 0
    <Phi_hx> = 0
    <Phi_hy> = 0
    <LamType> = 0
    <LamFill> = 1
    <BHPoints> = 0
  <EndBlock>
  <BeginBlock>
    <BlockName> = "Cu24"
    <Mu_x> = 1
    <Mu_y> = 1
    <H_c> = 0
    <H_cAngle> = 0
    <J_re> = 0
    <J_im> = 0
    <Sigma> = 0
    <d_lam> = 0
    <Phi_h> = 0
    <Phi_hx> = 0
    <Phi_hy> = 0
    <LamType> = 0
    <LamFill> = 1
    <BHPoints> = 0
  <EndBlock>
  <BeginBlock>
    <BlockName> = "Cu25"
    <Mu_x> = 1
    <Mu_y> = 1
    <H_c> = 0
    <H_cAngle> = 0
    <J_re> = 0
    <J_im> = 0
    <Sigma> = 0
    <d_lam> = 0
    <Phi_h> = 0
    <Phi_hx> = 0
    <Phi_hy> = 0
    <LamType> = 0
    <LamFill> = 1
    <BHPoints> = 0
  <EndBlock>
  <BeginBlock>
    <BlockName> = "Cu26"
    <Mu_x> = 1
    <Mu_y> = 1
    <H_c> = 0
    <H_cAngle> = 0
    <J_re> = 0
    <J_im> = 0
    <Sigma> = 0
    <d_lam> = 0
    <Phi_h> = 0
    <Phi_hx> = 0
    <Phi_hy> = 0
    <LamType> = 0
    <LamFill> = 1
    <BHPoints> = 0
  <EndBlock>
  <BeginBlock>
    <BlockName> = "Cu27"
    <Mu_x> = 1
    <Mu_y> = 1
    <H_c> = 0
    <H_cAngle> = 0
    <J_re> = 0
    <J_im> = 0
    <Sigma> = 0
    <d_lam> = 0
    <Phi_h> = 0
    <Phi_hx> = 0
    <Phi_hy> = 0
    <LamType> = 0
    <LamFill> = 1
    <BHPoints> = 0
  <EndBlock>
  <BeginBlock>
    <BlockName> = "Cu28"
    <Mu_x> = 1
    <Mu_y> = 1
    <H_c> = 0
    <H_cAngle> = 0
    <J_re> = 0
    <J_im> = 0
    <Sigma> = 0
    <d_lam> = 0
    <Phi_h> = 0
    <Phi_hx> = 0
    <Phi_hy> = 0
    <LamType> = 0
    <LamFill> = 1
    <BHPoints> = 0
  <EndBlock>
  <BeginBlock>
    <BlockName> = "Cu29"
    <Mu_x> = 1
    <Mu_y> = 1
    <H_c> = 0
    <H_cAngle> = 0
    <J_re> = 0
    <J_im> = 0
    <Sigma> = 0
    <d_lam> = 0
    <Phi_h> = 0
    <Phi_hx> = 0
    <Phi_hy> = 0
    <LamType> = 0
    <LamFill> = 1
    <BHPoints> = 0
  <EndBlock>
  <BeginBlock>
    <BlockName> = "Cu30"
    <Mu_x> = 1
    <Mu_y> = 1
    <H_c> = 0
    <H_cAngle> = 0
    <J_re> = 0
    <J_im> = 0
    <Sigma> = 0
    <d_lam> = 0
    <Phi_h> = 0
    <Phi_hx> = 0
    <Phi_hy> = 0
    <LamType> = 0
    <LamFill> = 1
    <BHPoints> = 0
  <EndBlock>
  <BeginBlock>
    <BlockName> = "Cu31"
    <Mu_x> = 1
    <Mu_y> = 1
    <H_c> = 0
    <H_cAngle> = 0
    <J_re> = 0
    <J_im> = 0
    <Sigma> = 0
    <d_lam> = 0
    <Phi_h> = 0
    <Phi_hx> = 0
    <Phi_hy> = 0
    <LamType> = 0
    <LamFill> = 1
    <BHPoints> = 0
  <EndBlock>
  <BeginBlock>
    <BlockName> = "Cu32"
    <Mu_x> = 1
    <Mu_y> = 1
    <H_c> = 0
    <H_cAngle> = 0
    <J_re> = 0
    <J_im> = 0
    <Sigma> = 0
    <d_lam> = 0
    <Phi_h> = 0
    <Phi_hx> = 0
    <Phi_hy> = 0
    <LamType> = 0
    <LamFill> = 1
    <BHPoints> = 0
  <EndBlock>
  <BeginBlock>
    <BlockName> = "Cu33"
    <Mu_x> = 1
    <Mu_y> = 1
    <H_c> = 0
    <H_cAngle> = 0
    <J_re> = 0
    <J_im> = 0
    <Sigma> = 0
    <d_lam> = 0
    <Phi_h> = 0
    <Phi_hx> = 0
    <Phi_hy> = 0
    <LamType> = 0
    <LamFill> = 1
    <BHPoints> = 0
  <EndBlock>
  <BeginBlock>
    <BlockName> = "Cu34"
    <Mu_x> = 1
    <Mu_y> = 1
    <H_c> = 0
    <H_cAngle> = 0
    <J_re> = 0
    <J_im> = 0
    <Sigma> = 0
    <d_lam> = 0
    <Phi_h> = 0
    <Phi_hx> = 0
    <Phi_hy> = 0
    <LamType> = 0
    <LamFill> = 1
    <BHPoints> = 0
  <EndBlock>
  <BeginBlock>
    <BlockName> = "Cu35"
    <Mu_x> = 1
    <Mu_y> = 1
    <H_c> = 0
    <H_cAngle> = 0
    <J_re> = 0
    <J_im> = 0
    <Sigma> = 0
    <d_lam> = 0
    <Phi_h> = 0
    <Phi_hx> = 0
    <Phi_hy> = 0
    <LamType> = 0
    <LamFill> = 1
    <BHPoints> = 0
  <EndBlock>
  <BeginBlock>
    <BlockName> = "Cu36"
    <Mu_x> = 1
    <Mu_y> = 1
    <H_c> = 0
    <H_cAngle> = 0
    <J_re> = 0
    <J_im> = 0
    <Sigma> = 0
    <d_lam> = 0
    <Phi_h> = 0
    <Phi_hx> = 0
    <Phi_hy> = 0
    <LamType> = 0
    <LamFill> = 1
    <BHPoints> = 0
  <EndBlock>
[CircuitProps]  = 0
[NumPoints] = 1570
62.5	-1.4999999999999962	0	1000
63.5	-1.499999999999996	0	1000
64.5	-2.1286868376817085	0	1000
85.41281649048544	-4.0447449166392868	0	1000
87.5	-2.0466460613098683	0	1000
62.5	1.5000000000000038	0	1000
63.5	1.500000000000004	0	1000
64.5	2.1286868376817165	0	1000
85.41281649048544	4.0447449166392975	0	1000
87.5	2.0466460613098789	0	1000
61.810956829763391	-9.3757994746648308	0	1000
61.810956829763391	9.3757994746648379	0	1000
62.795764582775604	9.549447652331768	0	1000
63.889742659474429	9.1039601580330203	0	1000
84.817566470341021	10.848483780109646	0	1000
86.526074747443872	13.178662637006546	0	1000
61.290012296762605	12.330222733701461	0	1000
62.274820049774817	12.503870911368391	0	1000
63.150457479100403	13.296654761001001	0	1000
83.412841302537046	18.81507608583583	0	1000
85.81528202969254	17.209768454706271	0	1000
59.243819014107778	19.966720026675436	0	1000
60.183511634893691	20.308740170001105	0	1000
61.338227818010452	20.059987931172039	0	1000
81.64517761275485	25.412086786797616	0	1000
82.923098497993095	28.003544339822586	0	1000
58.21775858413077	22.785797889033159	0	1000
59.157451204916683	23.127818032358828	0	1000
59.882120263371725	24.060610557839233	0	1000
78.878409140545372	33.013720689052128	0	1000
81.523110139540861	31.84998074216945	0	1000
54.876587736527419	29.950961894323342	0	1000
55.74261314031186	30.450961894323342	0	1000
56.922981962937151	30.40650312186607	0	1000
75.992041347858461	39.203556395605119	0	1000
76.800545861793324	41.977552518350286	0	1000
53.376587736527419	32.549038105676658	0	1000
54.24261314031186	33.049038105676658	0	1000
54.794295125255438	34.093496878133919	0	1000
71.947296431219172	46.209260094880314	0	1000
74.753899800483453	45.522447481649714	0	1000
48.841959109465932	39.025158940730236	0	1000
49.608003552584911	39.667946550416779	0	1000
50.778160105338699	39.829132101635196	0	1000
68.029925360435726	51.803845781288899	0	1000
68.344447502534322	54.676094005274415	0	1000
46.913596280406317	41.323292270087173	0	1000
47.679640723525296	41.966079879773716	0	1000
48.041573057009451	43.090469547928372	0	1000
62.83010152691903	58.000754515739423	0	1000
65.713330043286831	57.811737689869958	0	1000
41.323292270087173	46.913596280406324	0	1000
41.966079879773716	47.679640723525303	0	1000
43.090469547928372	48.041573057009458	0	1000
58.000754515739423	62.830101526919037	0	1000
57.811737689869965	65.713330043286831	0	1000
39.025158940730236	48.84195910946594	0	1000
39.667946550416779	49.608003552584918	0	1000
39.829132101635196	50.778160105338706	0	1000
51.803845781288899	68.02992536043574	0	1000
54.676094005274422	68.344447502534322	0	1000
32.549038105676665	53.376587736527412	0	1000
33.049038105676658	54.242613140311853	0	1000
34.093496878133926	54.794295125255431	0	1000
46.209260094880321	71.947296431219172	0	1000
45.522447481649714	74.753899800483438	0	1000
29.950961894323346	54.876587736527412	0	1000
30.450961894323346	55.742613140311853	0	1000
30.406503121866081	56.922981962937143	0	1000
39.203556395605126	75.992041347858461	0	1000
41.977552518350286	76.80054586179331	0	1000
22.785797889033159	58.217758584130763	0	1000
23.127818032358828	59.157451204916676	0	1000
24.060610557839233	59.882120263371725	0	1000
33.013720689052128	78.878409140545372	0	1000
31.84998074216945	81.523110139540861	0	1000
19.966720026675436	59.243819014107771	0	1000
20.308740170001105	60.183511634893684	0	1000
20.059987931172039	61.338227818010452	0	1000
25.412086786797616	81.645177612754864	0	1000
28.003544339822586	82.923098497993095	0	1000
12.33022273370146	61.290012296762605	0	1000
12.50387091136839	62.274820049774817	0	1000
13.296654761000998	63.150457479100403	0	1000
18.815076085835827	83.412841302537046	0	1000
17.209768454706268	85.81528202969254	0	1000
9.3757994746648361	61.810956829763391	0	1000
9.5494476523317662	62.795764582775604	0	1000
9.1039601580330185	63.889742659474429	0	1000
10.848483780109643	84.817566470341035	0	1000
13.178662637006543	86.526074747443872	0	1000
1.5	62.5	0	1000
1.5	63.5	0	1000
2.1286868376817125	64.5	0	1000
4.0447449166392921	85.41281649048544	0	1000
2.0466460613098736	87.5	0	1000
-1.5	62.5	0	1000
-1.5	63.5	0	1000
-2.1286868376817125	64.5	0	1000
-4.0447449166392921	85.41281649048544	0	1000
-2.0466460613098736	87.5	0	1000
-9.3757994746648361	61.810956829763391	0	1000
-9.5494476523317662	62.795764582775604	0	1000
-9.1039601580330185	63.889742659474429	0	1000
-10.848483780109643	84.817566470341021	0	1000
-13.178662637006545	86.526074747443872	0	1000
-12.33022273370146	61.290012296762605	0	1000
-12.50387091136839	62.274820049774817	0	1000
-13.296654761000998	63.150457479100403	0	1000
-18.815076085835827	83.412841302537046	0	1000
-17.209768454706268	85.81528202969254	0	1000
-19.966720026675436	59.243819014107778	0	1000
-20.308740170001105	60.183511634893691	0	1000
-20.059987931172039	61.338227818010452	0	1000
-25.412086786797616	81.64517761275485	0	1000
-28.003544339822586	82.923098497993095	0	1000
-22.785797889033159	58.21775858413077	0	1000
-23.127818032358828	59.157451204916683	0	1000
-24.060610557839233	59.882120263371725	0	1000
-33.013720689052128	78.878409140545372	0	1000
-31.84998074216945	81.523110139540861	0	1000
-29.950961894323331	54.876587736527419	0	1000
-30.450961894323331	55.74261314031186	0	1000
-30.406503121866063	56.922981962937151	0	1000
-39.203556395605105	75.992041347858461	0	1000
-41.977552518350272	76.800545861793324	0	1000
-32.549038105676644	53.376587736527419	0	1000
-33.049038105676644	54.24261314031186	0	1000
-34.093496878133912	54.794295125255438	0	1000
-46.2092600948803	71.947296431219172	0	1000
-45.522447481649699	74.753899800483453	0	1000
-39.025158940730243	48.841959109465932	0	1000
-39.667946550416787	49.608003552584911	0	1000
-39.829132101635203	50.778160105338699	0	1000
-51.803845781288906	68.029925360435726	0	1000
-54.676094005274429	68.344447502534322	0	1000
-41.32329227008718	46.913596280406317	0	1000
-41.966079879773723	47.679640723525296	0	1000
-43.090469547928379	48.041573057009451	0	1000
-58.00075451573943	62.830101526919023	0	1000
-57.811737689869972	65.713330043286831	0	1000
-46.913596280406317	41.32329227008718	0	1000
-47.679640723525296	41.966079879773723	0	1000
-48.041573057009444	43.090469547928379	0	1000
-62.830101526919016	58.000754515739438	0	1000
-65.713330043286817	57.811737689869972	0	1000
-48.841959109465932	39.025158940730243	0	1000
-49.608003552584911	39.667946550416787	0	1000
-50.778160105338699	39.829132101635203	0	1000
-68.029925360435726	51.803845781288913	0	1000
-68.344447502534308	54.676094005274429	0	1000
-53.376587736527419	32.549038105676651	0	1000
-54.24261314031186	33.049038105676651	0	1000
-54.794295125255438	34.093496878133912	0	1000
-71.947296431219186	46.209260094880307	0	1000
-74.753899800483453	45.522447481649699	0	1000
-54.876587736527419	29.950961894323335	0	1000
-55.74261314031186	30.450961894323335	0	1000
-56.922981962937151	30.406503121866063	0	1000
-75.992041347858475	39.203556395605112	0	1000
-76.800545861793324	41.977552518350272	0	1000
-58.217758584130763	22.785797889033162	0	1000
-59.157451204916676	23.127818032358832	0	1000
-59.882120263371725	24.060610557839233	0	1000
-78.878409140545372	33.013720689052136	0	1000
-81.523110139540847	31.849980742169453	0	1000
-59.243819014107771	19.966720026675439	0	1000
-60.183511634893684	20.308740170001109	0	1000
-61.338227818010452	20.059987931172042	0	1000
-81.645177612754864	25.412086786797623	0	1000
-82.923098497993095	28.003544339822589	0	1000
-61.290012296762605	12.330222733701451	0	1000
-62.274820049774817	12.503870911368381	0	1000
-63.15045747910041	13.296654761000989	0	1000
-83.412841302537046	18.815076085835813	0	1000
-85.81528202969254	17.209768454706257	0	1000
-61.810956829763391	9.3757994746648272	0	1000
-62.795764582775604	9.5494476523317573	0	1000
-63.889742659474429	9.1039601580330078	0	1000
-84.817566470341021	10.84848378010963	0	1000
-86.526074747443872	13.178662637006532	0	1000
-62.5	1.5000000000000038	0	1000
-63.5	1.5000000000000038	0	1000
-64.5	2.1286868376817165	0	1000
-85.41281649048544	4.0447449166392975	0	1000
-87.5	2.0466460613098789	0	1000
-62.5	-1.4999999999999962	0	1000
-63.5	-1.4999999999999962	0	1000
-64.5	-2.1286868376817085	0	1000
-85.41281649048544	-4.0447449166392868	0	1000
-87.5	-2.0466460613098683	0	1000
-61.810956829763391	-9.3757994746648468	0	1000
-62.795764582775604	-9.5494476523317768	0	1000
-63.889742659474429	-9.1039601580330292	0	1000
-84.817566470341021	-10.848483780109657	0	1000
-86.526074747443872	-13.178662637006559	0	1000
-61.290012296762605	-12.33022273370147	0	1000
-62.274820049774817	-12.5038709113684	0	1000
-63.150457479100403	-13.296654761001008	0	1000
-83.412841302537032	-18.815076085835841	0	1000
-85.81528202969254	-17.209768454706282	0	1000
-59.243819014107778	-19.966720026675432	0	1000
-60.183511634893691	-20.308740170001101	0	1000
-61.338227818010452	-20.059987931172035	0	1000
-81.64517761275485	-25.412086786797612	0	1000
-82.923098497993095	-28.003544339822582	0	1000
-58.21775858413077	-22.785797889033155	0	1000
-59.157451204916683	-23.127818032358824	0	1000
-59.882120263371725	-24.06061055783923	0	1000
-78.878409140545372	-33.013720689052128	0	1000
-81.523110139540861	-31.849980742169446	0	1000
-54.876587736527412	-29.950961894323353	0	1000
-55.742613140311853	-30.450961894323353	0	1000
-56.922981962937143	-30.406503121866084	0	1000
-75.992041347858446	-39.203556395605133	0	1000
-76.80054586179331	-41.977552518350301	0	1000
-53.376587736527412	-32.549038105676665	0	1000
-54.242613140311853	-33.049038105676665	0	1000
-54.794295125255431	-34.093496878133934	0	1000
-71.947296431219158	-46.209260094880328	0	1000
-74.753899800483438	-45.522447481649728	0	1000
-48.841959109465932	-39.025158940730236	0	1000
-49.608003552584911	-39.667946550416779	0	1000
-50.778160105338699	-39.829132101635196	0	1000
-68.029925360435726	-51.803845781288899	0	1000
-68.344447502534322	-54.676094005274415	0	1000
-46.913596280406317	-41.323292270087173	0	1000
-47.679640723525296	-41.966079879773716	0	1000
-48.041573057009451	-43.090469547928372	0	1000
-62.83010152691903	-58.000754515739423	0	1000
-65.713330043286831	-57.811737689869958	0	1000
-41.32329227008718	-46.913596280406317	0	1000
-41.966079879773723	-47.679640723525296	0	1000
-43.090469547928379	-48.041573057009444	0	1000
-58.000754515739438	-62.830101526919016	0	1000
-57.811737689869972	-65.713330043286817	0	1000
-39.025158940730243	-48.841959109465932	0	1000
-39.667946550416787	-49.608003552584911	0	1000
-39.829132101635203	-50.778160105338699	0	1000
-51.803845781288913	-68.029925360435726	0	1000
-54.676094005274429	-68.344447502534308	0	1000
-32.549038105676679	-53.376587736527398	0	1000
-33.049038105676679	-54.242613140311839	0	1000
-34.093496878133948	-54.794295125255417	0	1000
-46.209260094880349	-71.947296431219144	0	1000
-45.522447481649742	-74.753899800483424	0	1000
-29.950961894323367	-54.876587736527398	0	1000
-30.450961894323367	-55.742613140311839	0	1000
-30.406503121866102	-56.922981962937129	0	1000
-39.203556395605155	-75.992041347858446	0	1000
-41.977552518350315	-76.800545861793296	0	1000
-22.785797889033194	-58.217758584130756	0	1000
-23.127818032358864	-59.157451204916669	0	1000
-24.060610557839269	-59.882120263371711	0	1000
-33.013720689052178	-78.878409140545358	0	1000
-31.849980742169496	-81.523110139540847	0	1000
-19.966720026675471	-59.243819014107764	0	1000
-20.308740170001141	-60.183511634893677	0	1000
-20.059987931172074	-61.338227818010445	0	1000
-25.412086786797669	-81.64517761275485	0	1000
-28.003544339822632	-82.923098497993095	0	1000
-12.330222733701454	-61.290012296762605	0	1000
-12.503870911368384	-62.274820049774817	0	1000
-13.296654761000992	-63.150457479100403	0	1000
-18.81507608583582	-83.412841302537046	0	1000
-17.209768454706261	-85.81528202969254	0	1000
-9.3757994746648308	-61.810956829763391	0	1000
-9.5494476523317608	-62.795764582775604	0	1000
-9.1039601580330114	-63.889742659474429	0	1000
-10.848483780109635	-84.817566470341021	0	1000
-13.178662637006536	-86.526074747443872	0	1000
-1.5000000000000078	-62.5	0	1000
-1.5000000000000078	-63.5	0	1000
-2.1286868376817205	-64.5	0	1000
-4.0447449166393028	-85.41281649048544	0	1000
-2.0466460613098842	-87.5	0	1000
1.4999999999999922	-62.5	0	1000
1.4999999999999922	-63.5	0	1000
2.1286868376817045	-64.5	0	1000
4.0447449166392815	-85.41281649048544	0	1000
2.0466460613098629	-87.5	0	1000
9.3757994746648148	-61.810956829763398	0	1000
9.5494476523317449	-62.795764582775611	0	1000
9.1039601580329972	-63.889742659474429	0	1000
10.848483780109614	-84.817566470341035	0	1000
13.178662637006516	-86.526074747443857	0	1000
12.330222733701438	-61.290012296762612	0	1000
12.50387091136837	-62.274820049774824	0	1000
13.296654761000978	-63.15045747910041	0	1000
18.815076085835798	-83.412841302537061	0	1000
17.209768454706243	-85.81528202969254	0	1000
19.9667200266754	-59.243819014107785	0	1000
20.308740170001069	-60.183511634893698	0	1000
20.059987931172003	-61.338227818010459	0	1000
25.41208678679757	-81.645177612754864	0	1000
28.003544339822536	-82.923098497993109	0	1000
22.785797889033123	-58.217758584130777	0	1000
23.127818032358793	-59.15745120491669	0	1000
24.060610557839198	-59.882120263371732	0	1000
33.013720689052086	-78.878409140545386	0	1000
31.8499807421694	-81.523110139540876	0	1000
29.950961894323353	-54.876587736527412	0	1000
30.450961894323353	-55.742613140311853	0	1000
30.406503121866084	-56.922981962937143	0	1000
39.203556395605133	-75.992041347858446	0	1000
41.977552518350301	-76.80054586179331	0	1000
32.549038105676665	-53.376587736527412	0	1000
33.049038105676665	-54.242613140311853	0	1000
34.093496878133934	-54.794295125255431	0	1000
46.209260094880328	-71.947296431219158	0	1000
45.522447481649728	-74.753899800483438	0	1000
39.025158940730236	-48.84195910946594	0	1000
39.667946550416779	-49.608003552584918	0	1000
39.829132101635196	-50.778160105338706	0	1000
51.803845781288899	-68.02992536043574	0	1000
54.676094005274415	-68.344447502534337	0	1000
41.323292270087173	-46.913596280406324	0	1000
41.966079879773716	-47.679640723525303	0	1000
43.090469547928372	-48.041573057009458	0	1000
58.000754515739423	-62.830101526919044	0	1000
57.811737689869958	-65.713330043286845	0	1000
46.91359628040631	-41.323292270087187	0	1000
47.679640723525289	-41.96607987977373	0	1000
48.041573057009437	-43.090469547928386	0	1000
62.830101526919016	-58.000754515739445	0	1000
65.713330043286817	-57.811737689869979	0	1000
48.841959109465925	-39.02515894073025	0	1000
49.608003552584904	-39.667946550416794	0	1000
50.778160105338692	-39.82913210163521	0	1000