[Format]      =  3.3
[Frequency]   =  0
[Precision]   =  1e-008
[Depth]       =  40
[LengthUnits] =  millimeters
[ProblemType] =  planar
[Coordinates] =  cartesian
[Comment]     =  "Add comments here."
[PointProps]   = 0
[BdryProps]   = 6
  <BeginBdry>
    <BdryName> = "Azero"
    <BdryType> = 0
    <A_0> = 0
    <A_1> = 0
    <A_2> = 0
    <Phi> = 0
    <c0> = 0
    <c1> = 0
    <Mu_ssd> = 0
    <Sigma_ssd> = 0
  <EndBdry>
  <BeginBdry>
    <BdryName> = "Az_per1"
    <BdryType> = 5
    <A_0> = 0
    <A_1> = 0
    <A_2> = 0
    <Phi> = 0
    <c0> = 0
    <c1> = 0
    <Mu_ssd> = 0
    <Sigma_ssd> = 0
  <EndBdry>
  <BeginBdry>
    <BdryName> = "Az_per2"
    <BdryType> = 5
    <A_0> = 0
    <A_1> = 0
    <A_2> = 0
    <Phi> = 0
    <c0> = 0
    <c1> = 0
    <Mu_ssd> = 0
    <Sigma_ssd> = 0
  <EndBdry>
  <BeginBdry>
    <BdryName> = "Az_per3"
    <BdryType> = 5
    <A_0> = 0
    <A_1> = 0
    <A_2> = 0
    <Phi> = 0
    <c0> = 0
    <c1> = 0
    <Mu_ssd> = 0
    <Sigma_ssd> = 0
  <EndBdry>
  <BeginBdry>
    <BdryName> = "Az_per4"
    <BdryType> = 5
    <A_0> = 0
    <A_1> = 0
    <A_2> = 0
    <Phi> = 0
    <c0> = 0
    <c1> = 0
    <Mu_ssd> = 0
    <Sigma_ssd> = 0
  <EndBdry>
  <BeginBdry>
    <BdryName> = "Az_per5"
    <BdryType> = 5
    <A_0> = 0
    <A_1> = 0
    <A_2> = 0
    <Phi> = 0
    <c0> = 0
    <c1> = 0
    <Mu_ssd> = 0
    <Sigma_ssd> = 0
  <EndBdry>
[BlockProps]  = 5
  <BeginBlock>
    <BlockName> = "Air"
    <Mu_x> = 1
    <Mu_y> = 1
    <H_c> = 0
    <H_cAngle> = 0
    <J_re> = 0
    <J_im> = 0
    <Sigma> = 0
    <d_lam> = 0
    <Phi_h> = 0
    <Phi_hx> = 0
    <Phi_hy> = 0
    <LamType> = 0
    <LamFill> = 1
    <BHPoints> = 0
  <EndBlock>
  <BeginBlock>
    <BlockName> = "Iron"
    <Mu_x> = 5000
    <Mu_y> = 5000
    <H_c> = 0
    <H_cAngle> = 0
    <J_re> = 0
    <J_im> = 0
    <Sigma> = 0
    <d_lam> = 0
    <Phi_h> = 0
    <Phi_hx> = 0
    <Phi_hy> = 0
    <LamType> = 0
    <LamFill> = 1
    <BHPoints> = 0
  <EndBlock>
  <BeginBlock>
    <BlockName> = "iIron"
    <Mu_x> = 1000000
    <Mu_y> = 1000000
    <H_c> = 0
    <H_cAngle> = 0
    <J_re> = 0
    <J_im> = 0
    <Sigma> = 0
    <d_lam> = 0
    <Phi_h> = 0
    <Phi_hx> = 0
    <Phi_hy> = 0
    <LamType> = 0
    <LamFill> = 1
    <BHPoints> = 0
  <EndBlock>
  <BeginBlock>
    <BlockName> = "Magnet"
    <Mu_x> = 1.0800000000000001
    <Mu_y> = 1.0800000000000001
    <H_c> = 666800
    <H_cAngle> = 0
    <J_re> = 0
    <J_im> = 0
    <Sigma> = 0.66700000000000004
    <d_lam> = 0
    <Phi_h> = 0
    <Phi_hx> = 0
    <Phi_hy> = 0
    <LamType> = 0
    <LamFill> = 1
    <BHPoints> = 0
  <EndBlock>
  <BeginBlock>
    <BlockName> = "Terni"
    <Mu_x> = 7000
    <Mu_y> = 7000
    <H_c> = 0
    <H_cAngle> = 0
    <J_re> = 0
    <J_im> = 0
    <Sigma> = 3
    <d_lam> = 0
    <Phi_h> = 0
    <Phi_hx> = 0
    <Phi_hy> = 0
    <LamType> = 0
    <LamFill> = 1
    <BHPoints> = 36
      0	0
      0.40000000000000002	75
      0.52000000000000002	85
      0.56999999999999995	90
      0.65000000000000002	100
      0.69999999999999996	110
      0.80000000000000004	125
      0.90000000000000002	145
      0.94999999999999996	160
      1	170
      1.05	185
      1.1000000000000001	200
      1.1799999999999999	250
      1.25	300
      1.3	360
      1.3300000000000001	400
      1.3700000000000001	500
      1.3999999999999999	600
      1.4299999999999999	700
      1.47	900
      1.48	1000
      1.54	1500
      1.5800000000000001	2000
      1.605	2500
      1.6299999999999999	3000
      1.6699999999999999	4000
      1.7	5000
      1.74	6000
      1.78	8000
      1.8100000000000001	10000
      1.8799999999999999	15000
      1.9299999999999999	20000
      2	30000
      2.004	33000
      2.0750000000000002	90000
      3	1335600
  <EndBlock>
[CircuitProps]  = 0
[NumPoints] = 206
62.5	-1.4999999999999962	0	1000
63.5	-1.499999999999996	0	1000
64.5	-2.1286868376817085	0	1000
85.326127875091956	-3.9461093469903319	0	1000
87.5	-1.9536815605498838	0	1000
62.5	1.5000000000000038	0	1000
63.5	1.500000000000004	0	1000
64.5	2.1286868376817165	0	1000
85.326127875091956	3.9461093469903425	0	1000
87.5	1.9536815605498945	0	1000
61.810956829763391	9.3757994746648379	0	1000
62.795764582775604	9.549447652331768	0	1000
63.889742659474429	9.1039601580330203	0	1000
84.71506696288094	10.930567533735164	0	1000
86.509931631299182	13.270214798109889	0	1000
61.290012296762605	12.330222733701461	0	1000
62.274820049774817	12.503870911368391	0	1000
63.150457479100403	13.296654761001001	0	1000
83.344597568922325	18.702885692035217	0	1000
85.83142514583723	17.118216293602931	0	1000
59.243819014107778	19.966720026675436	0	1000
60.183511634893691	20.308740170001105	0	1000
61.338227818010452	20.059987931172039	0	1000
81.529981608895113	25.475124651082172	0	1000
82.891302766118969	28.090902395181789	0	1000
58.21775858413077	22.785797889033159	0	1000
59.157451204916683	23.127818032358828	0	1000
59.882120263371725	24.060610557839233	0	1000
78.830683840022331	32.891384319444413	0	1000
81.554905871414988	31.762622686810246	0	1000
54.876587736527419	29.950961894323342	0	1000
55.74261314031186	30.450961894323342	0	1000
56.922981962937151	30.40650312186607	0	1000
75.867649019884325	39.245632996941119	0	1000
76.754063611413329	42.058062137658567	0	1000
53.376587736527419	32.549038105676658	0	1000
54.24261314031186	33.049038105676658	0	1000
54.794295125255438	34.093496878133919	0	1000
71.921539672893985	46.08049487815083	0	1000
74.800382050863448	45.441937862341426	0	1000
48.841959109465932	39.025158940730236	0	1000
49.608003552584911	39.667946550416779	0	1000
50.778160105338699	39.829132101635196	0	1000
67.900116306287146	51.823682643436541	0	1000
68.284691073305098	54.747308944488928	0	1000
46.913596280406317	41.323292270087173	0	1000
47.679640723525296	41.966079879773716	0	1000
48.041573057009451	43.090469547928372	0	1000
62.827095916859882	57.869472917840156	0	1000
65.773086472516042	57.740522750655444	0	1000
41.323292270087173	46.913596280406324	0	1000
41.966079879773716	47.679640723525303	0	1000
43.090469547928372	48.041573057009458	0	1000
57.869472917840156	62.827095916859889	0	1000
57.740522750655451	65.773086472516056	0	1000
39.025158940730236	48.84195910946594	0	1000
39.667946550416779	49.608003552584918	0	1000
39.829132101635196	50.778160105338706	0	1000
51.823682643436541	67.900116306287146	0	1000
54.747308944488935	68.284691073305112	0	1000
32.549038105676665	53.376587736527412	0	1000
33.049038105676658	54.242613140311853	0	1000
34.093496878133926	54.794295125255431	0	1000
46.080494878150837	71.921539672893985	0	1000
45.441937862341433	74.800382050863433	0	1000
29.950961894323346	54.876587736527412	0	1000
30.450961894323346	55.742613140311853	0	1000
30.406503121866081	56.922981962937143	0	1000
39.245632996941126	75.867649019884325	0	1000
42.058062137658574	76.754063611413315	0	1000
22.785797889033159	58.217758584130763	0	1000
23.127818032358828	59.157451204916676	0	1000
24.060610557839233	59.882120263371725	0	1000
32.891384319444413	78.830683840022317	0	1000
31.762622686810246	81.554905871414988	0	1000
19.966720026675436	59.243819014107771	0	1000
20.308740170001105	60.183511634893684	0	1000
20.059987931172039	61.338227818010452	0	1000
25.475124651082172	81.529981608895113	0	1000
28.090902395181789	82.891302766118969	0	1000
12.33022273370146	61.290012296762605	0	1000
12.50387091136839	62.274820049774817	0	1000
13.296654761000998	63.150457479100403	0	1000
18.702885692035213	83.344597568922325	0	1000
17.118216293602927	85.83142514583723	0	1000
9.3757994746648361	61.810956829763391	0	1000
9.5494476523317662	62.795764582775604	0	1000
9.1039601580330185	63.889742659474429	0	1000
10.930567533735161	84.71506696288094	0	1000
13.270214798109885	86.509931631299182	0	1000
1.5	62.5	0	1000
1.5	63.5	0	1000
2.1286868376817125	64.5	0	1000
3.9461093469903372	85.326127875091956	0	1000
1.9536815605498892	87.5	0	1000
-1.5	62.5	0	1000
-1.5	63.5	0	1000
-2.1286868376817125	64.5	0	1000
-3.9461093469903372	85.326127875091956	0	1000
-1.9536815605498892	87.5	0	1000
-9.3757994746648361	61.810956829763391	0	1000
-9.5494476523317662	62.795764582775604	0	1000
-9.1039601580330185	63.889742659474429	0	1000
-10.930567533735161	84.71506696288094	0	1000
-13.270214798109887	86.509931631299182	0	1000
-12.33022273370146	61.290012296762605	0	1000
-12.50387091136839	62.274820049774817	0	1000
-13.296654761000998	63.150457479100403	0	1000
-18.702885692035213	83.344597568922325	0	1000
-17.118216293602927	85.83142514583723	0	1000
-19.966720026675436	59.243819014107778	0	1000
-20.308740170001105	60.183511634893691	0	1000
-20.059987931172039	61.338227818010452	0	1000
-25.475124651082172	81.529981608895113	0	1000
-28.090902395181789	82.891302766118969	0	1000
-22.785797889033159	58.21775858413077	0	1000
-23.127818032358828	59.157451204916683	0	1000
-24.060610557839233	59.882120263371725	0	1000
-32.891384319444413	78.830683840022331	0	1000
-31.762622686810246	81.554905871414988	0	1000
-29.950961894323331	54.876587736527419	0	1000
-30.450961894323331	55.74261314031186	0	1000
-30.406503121866063	56.922981962937151	0	1000
-39.245632996941104	75.867649019884325	0	1000
-42.058062137658553	76.754063611413329	0	1000
-32.549038105676644	53.376587736527419	0	1000
-33.049038105676644	54.24261314031186	0	1000
-34.093496878133912	54.794295125255438	0	1000
-46.080494878150816	71.921539672893985	0	1000
-45.441937862341412	74.800382050863448	0	1000
-39.025158940730243	48.841959109465932	0	1000
-39.667946550416787	49.608003552584911	0	1000
-39.829132101635203	50.778160105338699	0	1000
-51.823682643436555	67.900116306287146	0	1000
-54.747308944488942	68.284691073305098	0	1000
-41.32329227008718	46.913596280406317	0	1000
-41.966079879773723	47.679640723525296	0	1000
-43.090469547928379	48.041573057009451	0	1000
-57.86947291784017	62.827095916859882	0	1000
-57.740522750655458	65.773086472516042	0	1000
-46.913596280406317	41.32329227008718	0	1000
-47.679640723525296	41.966079879773723	0	1000
-48.041573057009444	43.090469547928379	0	1000
-62.827095916859889	57.869472917840163	0	1000
-65.773086472516042	57.740522750655458	0	1000
-48.841959109465932	39.025158940730243	0	1000
-49.608003552584911	39.667946550416787	0	1000
-50.778160105338699	39.829132101635203	0	1000
-67.900116306287146	51.823682643436555	0	1000
-68.284691073305098	54.747308944488942	0	1000
-53.376587736527419	32.549038105676651	0	1000
-54.24261314031186	33.049038105676651	0	1000
-54.794295125255438	34.093496878133912	0	1000
-71.921539672893985	46.080494878150823	0	1000
-74.800382050863448	45.441937862341419	0	1000
-54.876587736527419	29.950961894323335	0	1000
-55.74261314031186	30.450961894323335	0	1000
-56.922981962937151	30.406503121866063	0	1000
-75.867649019884325	39.245632996941112	0	1000
-76.754063611413329	42.05806213765856	0	1000
-58.217758584130763	22.785797889033162	0	1000
-59.157451204916676	23.127818032358832	0	1000
-59.882120263371725	24.060610557839233	0	1000
-78.830683840022317	32.891384319444413	0	1000
-81.554905871414988	31.76262268681025	0	1000
-59.243819014107771	19.966720026675439	0	1000
-60.183511634893684	20.308740170001109	0	1000
-61.338227818010452	20.059987931172042	0	1000
-81.529981608895113	25.475124651082176	0	1000
-82.891302766118969	28.090902395181793	0	1000
-61.290012296762605	12.330222733701451	0	1000
-62.274820049774817	12.503870911368381	0	1000
-63.15045747910041	13.296654761000989	0	1000
-83.344597568922325	18.702885692035199	0	1000
-85.83142514583723	17.118216293602917	0	1000
-61.810956829763391	9.3757994746648272	0	1000
-62.795764582775604	9.5494476523317573	0	1000
-63.889742659474429	9.1039601580330078	0	1000
-84.71506696288094	10.93056753373515	0	1000
-86.509931631299182	13.270214798109874	0	1000
61.764072277882917	-5.4036561375105485	0	1000
-61.764072277882917	5.4036561375105503	0	1000
99.619469809174561	-8.7155742747658174	0	1000
-99.619469809174561	8.7155742747658191	0	1000
62.280097553906479	-5.4488024992554465	0	1000
-62.280097553906472	5.4488024992554474	0	1000
48.930435313820787	-28.249999999999993	0	10
51.206389967570722	-23.877931788349514	0	10
56.206389967570722	-23.877931788349514	0	10
48.930435313820787	28.25	0	10
51.206389967570722	23.877931788349521	0	10
56.206389967570722	23.877931788349521	0	10
46.282090502328039	32.407068653834102	0	10
48.782090502328039	36.737195672756293	0	10
1.0658141036401503e-014	56.5	0	10
4.9242994652426937	56.285000442183623	0	10
7.4242994652426937	60.615127461105814	0	10
-4.9242994652426795	56.285000442183616	0	10
-7.4242994652426759	60.615127461105807	0	10
-48.93043531382078	28.250000000000014	0	10
-46.282090502328032	32.407068653834109	0	10
-48.782090502328025	36.7371956727563	0	10
53.693575900660605	-31.000000499999995	0	10
-53.693575900660598	31.000000500000002	0	10
17.320508075688775	-9.9999999999999982	0	10
-17.320508075688775	10	0	10
[NumSegments] = 122
0	1	-1	0	0	1000
2	3	-1	0	0	1000
5	6	-1	0	0	1000
7	8	-1	0	0	1000
4	9	-1	0	0	1000
1	6	-1	0	0	1000
10	11	-1	0	0	1000
12	13	-1	0	0	1000
15	16	-1	0	0	1000
17	18	-1	0	0	1000
14	19	-1	0	0	1000
11	16	-1	0	0	1000
20	21	-1	0	0	1000
22	23	-1	0	0	1000
25	26	-1	0	0	1000
27	28	-1	0	0	1000
24	29	-1	0	0	1000
21	26	-1	0	0	1000
30	31	-1	0	0	1000
32	33	-1	0	0	1000
35	36	-1	0	0	1000
37	38	-1	0	0	1000
34	39	-1	0	0	1000
31	36	-1	0	0	1000
40	41	-1	0	0	1000
42	43	-1	0	0	1000
45	46	-1	0	0	1000
47	48	-1	0	0	1000
44	49	-1	0	0	1000
41	46	-1	0	0	1000
50	51	-1	0	0	1000
52	53	-1	0	0	1000
55	56	-1	0	0	1000
57	58	-1	0	0	1000
54	59	-1	0	0	1000
51	56	-1	0	0	1000
60	61	-1	0	0	1000
62	63	-1	0	0	1000
65	66	-1	0	0	1000
67	68	-1	0	0	1000
64	69	-1	0	0	1000
61	66	-1	0	0	1000
70	71	-1	0	0	1000
72	73	-1	0	0	1000
75	76	-1	0	0	1000
77	78	-1	0	0	1000
74	79	-1	0	0	1000
71	76	-1	0	0	1000
80	81	-1	0	0	1000
82	83	-1	0	0	1000
85	86	-1	0	0	1000
87	88	-1	0	0	1000
84	89	-1	0	0	1000
81	86	-1	0	0	1000
90	91	-1	0	0	1000
92	93	-1	0	0	1000
95	96	-1	0	0	1000
97	98	-1	0	0	1000
94	99	-1	0	0	1000
91	96	-1	0	0	1000
100	101	-1	0	0	1000
102	103	-1	0	0	1000
105	106	-1	0	0	1000
107	108	-1	0	0	1000
104	109	-1	0	0	1000
101	106	-1	0	0	1000
110	111	-1	0	0	1000
112	113	-1	0	0	1000
115	116	-1	0	0	1000
117	118	-1	0	0	1000
114	119	-1	0	0	1000
111	116	-1	0	0	1000
120	121	-1	0	0	1000
122	123	-1	0	0	1000
125	126	-1	0	0	1000
127	128	-1	0	0	1000
124	129	-1	0	0	1000
121	126	-1	0	0	1000
130	131	-1	0	0	1000
132	133	-1	0	0	1000
135	136	-1	0	0	1000
137	138	-1	0	0	1000
134	139	-1	0	0	1000
131	136	-1	0	0	1000
140	141	-1	0	0	1000
142	143	-1	0	0	1000
145	146	-1	0	0	1000
147	148	-1	0	0	1000
144	149	-1	0	0	1000
141	146	-1	0	0	1000
150	151	-1	0	0	1000
152	153	-1	0	0	1000
155	156	-1	0	0	1000
157	158	-1	0	0	1000
154	159	-1	0	0	1000
151	156	-1	0	0	1000
160	161	-1	0	0	1000
162	163	-1	0	0	1000
165	166	-1	0	0	1000
167	168	-1	0	0	1000
164	169	-1	0	0	1000
161	166	-1	0	0	1000
170	171	-1	0	0	1000
172	173	-1	0	0	1000
175	176	-1	0	0	1000
177	178	-1	0	0	1000
174	179	-1	0	0	1000
171	176	-1	0	0	1000
180	184	-1	3	0	1000
184	182	-1	2	0	1000
181	185	-1	3	0	1000
185	183	-1	2	0	1000
187	188	-1	0	0	10
190	191	-1	0	0	10
192	193	-1	0	0	10
195	196	-1	0	0	10
197	198	-1	0	0	10
200	201	-1	0	0	10
202	186	-1	5	0	10
186	204	-1	4	0	10
203	199	-1	5	0	10
199	205	-1	4	0	10
[NumArcSegments] = 123
1	2	30	10	0	0	1000
3	4	94.987365288755001	10	0	0	1000
7	6	30	10	0	0	1000
9	8	94.987365288755001	10	0	0	1000
0	5	2.7496695611388109	10	0	0	1000
11	12	30	10	0	0	1000
13	14	94.987365288755001	10	0	0	1000
17	16	30	10	0	0	1000
19	18	94.987365288755001	10	0	0	1000
5	10	7.2503304388611891	1	0	0	1000
10	15	2.7496695611388109	10	0	0	1000
21	22	30	10	0	0	1000
23	24	94.987365288755001	10	0	0	1000
27	26	30	10	0	0	1000
29	28	94.987365288755001	10	0	0	1000
15	20	7.2503304388611891	1	0	0	1000
20	25	2.7496695611388109	10	0	0	1000
31	32	30	10	0	0	1000
33	34	94.987365288755001	10	0	0	1000
37	36	30	10	0	0	1000
39	38	94.987365288755001	10	0	0	1000
25	30	7.2503304388611891	1	0	0	1000
30	35	2.7496695611388109	10	0	0	1000
41	42	30	10	0	0	1000
43	44	94.987365288755001	10	0	0	1000
47	46	30	10	0	0	1000
49	48	94.987365288755001	10	0	0	1000
35	40	7.2503304388611891	1	0	0	1000
40	45	2.7496695611388109	10	0	0	1000
51	52	30	10	0	0	1000
53	54	94.987365288755001	10	0	0	1000
57	56	30	10	0	0	1000
59	58	94.987365288755001	10	0	0	1000
45	50	7.2503304388611891	1	0	0	1000
50	55	2.7496695611388109	10	0	0	1000
61	62	30	10	0	0	1000
63	64	94.987365288755001	10	0	0	1000
67	66	30	10	0	0	1000
69	68	94.987365288755001	10	0	0	1000
55	60	7.2503304388611891	1	0	0	1000
60	65	2.7496695611388109	10	0	0	1000
71	72	30	10	0	0	1000
73	74	94.987365288755001	10	0	0	1000
77	76	30	10	0	0	1000
79	78	94.987365288755001	10	0	0	1000
65	70	7.2503304388611891	1	0	0	1000
70	75	2.7496695611388109	10	0	0	1000
81	82	30	10	0	0	1000
83	84	94.987365288755001	10	0	0	1000
87	86	30	10	0	0	1000
89	88	94.987365288755001	10	0	0	1000
75	80	7.2503304388611891	1	0	0	1000
80	85	2.7496695611388109	10	0	0	1000
91	92	30	10	0	0	1000
93	94	94.987365288755001	10	0	0	1000
97	96	30	10	0	0	1000
99	98	94.987365288755001	10	0	0	1000
85	90	7.2503304388611891	1	0	0	1000
90	95	2.7496695611388109	10	0	0	1000
101	102	30	10	0	0	1000
103	104	94.987365288755001	10	0	0	1000
107	106	30	10	0	0	1000
109	108	94.987365288755001	10	0	0	1000
95	100	7.2503304388611891	1	0	0	1000
100	105	2.7496695611388109	10	0	0	1000
111	112	30	10	0	0	1000
113	114	94.987365288755001	10	0	0	1000
117	116	30	10	0	0	1000
119	118	94.987365288755001	10	0	0	1000
105	110	7.2503304388611891	1	0	0	1000
110	115	2.7496695611388109	10	0	0	1000
121	122	30	10	0	0	1000
123	124	94.987365288755001	10	0	0	1000
127	126	30	10	0	0	1000
129	128	94.987365288755001	10	0	0	1000
115	120	7.2503304388611891	1	0	0	1000
120	125	2.7496695611388109	10	0	0	1000
131	132	30	10	0	0	1000
133	134	94.987365288755001	10	0	0	1000
137	136	30	10	0	0	1000
139	138	94.987365288755001	10	0	0	1000
125	130	7.2503304388611891	1	0	0	1000
130	135	2.7496695611388109	10	0	0	1000
141	142	30	10	0	0	1000
143	144	94.987365288755001	10	0	0	1000
147	146	30	10	0	0	1000
149	148	94.987365288755001	10	0	0	1000
135	140	7.2503304388611891	1	0	0	1000
140	145	2.7496695611388109	10	0	0	1000
151	152	30	10	0	0	1000
153	154	94.987365288755001	10	0	0	1000
157	156	30	10	0	0	1000
159	158	94.987365288755001	10	0	0	1000
145	150	7.2503304388611891	1	0	0	1000
150	155	2.7496695611388109	10	0	0	1000
161	162	30	10	0	0	1000
163	164	94.987365288755001	10	0	0	1000
167	166	30	10	0	0	1000
169	168	94.987365288755001	10	0	0	1000
155	160	7.2503304388611891	1	0	0	1000
160	165	2.7496695611388109	10	0	0	1000
171	172	30	10	0	0	1000
173	174	94.987365288755001	10	0	0	1000
177	176	30	10	0	0	1000
179	178	94.987365288755001	10	0	0	1000
165	170	7.2503304388611891	1	0	0	1000
170	175	2.7496695611388109	10	0	0	1000
175	185	3.6251652194305941	1	0	0	1000
184	0	3.6251652194305972	1	0	0	1000
182	183	180	5	1	0	1000
186	187	4.9999999999999947	1	0	0	10
187	190	50	1	0	0	10
190	189	4.9999999999999947	1	0	0	10
188	191	50	1	0	0	10
189	192	4.9999999999999947	1	0	0	10
192	195	50	1	0	0	10
195	194	4.9999999999999947	1	0	0	10
193	196	50	1	0	0	10
194	197	4.9999999999999947	1	0	0	10
197	200	50	1	0	0	10
200	199	4.9999999999999947	1	0	0	10
198	201	50	1	0	0	10
204	205	180	5	1	0	10
[NumHoles] = 0
[NumBlockLabels] = 39
75	4.5924254968025744e-015	0	-1	0	0	1000
63	3.8576374173141627e-015	1	-1	0	0	1000
73.860581475915595	13.023613325019781	0	-1	0	0	1000
62.042888439769108	10.939835193016615	1	-1	0	0	1000
70.476946558943126	25.651510749425157	0	-1	0	0	1000
59.200635109512234	21.547269029517132	1	-1	0	0	1000
64.9519052838329	37.5	0	-1	0	0	1000
54.559600438419636	31.5	1	-1	0	0	1000
57.453333233923352	48.209070726490445	0	-1	0	0	1000
48.260799916495614	40.495619410251976	1	-1	0	0	1000
48.209070726490452	57.453333233923352	0	-1	0	0	1000
40.495619410251983	48.260799916495614	1	-1	0	0	1000
37.5	64.9519052838329	0	-1	0	0	1000
31.500000000000004	54.559600438419629	1	-1	0	0	1000
25.651510749425157	70.476946558943126	0	-1	0	0	1000
21.547269029517132	59.200635109512227	1	-1	0	0	1000
13.023613325019776	73.860581475915595	0	-1	0	0	1000
10.939835193016613	62.042888439769108	1	-1	0	0	1000
0	75	0	-1	0	0	1000
0	63	1	-1	0	0	1000
-13.023613325019777	73.860581475915595	0	-1	0	0	1000
-10.939835193016613	62.042888439769108	1	-1	0	0	1000
-25.651510749425157	70.476946558943126	0	-1	0	0	1000
-21.547269029517132	59.200635109512234	1	-1	0	0	1000
-37.499999999999993	64.9519052838329	0	-1	0	0	1000
-31.499999999999989	54.559600438419636	1	-1	0	0	1000
-48.209070726490452	57.453333233923352	0	-1	0	0	1000
-40.495619410251983	48.260799916495614	1	-1	0	0	1000
-57.453333233923345	48.209070726490459	0	-1	0	0	1000
-48.260799916495607	40.49561941025199	1	-1	0	0	1000
-64.9519052838329	37.499999999999986	0	-1	0	0	1000
-54.559600438419636	31.499999999999993	1	-1	0	0	1000
-70.476946558943126	25.651510749425164	0	-1	0	0	1000
-59.200635109512227	21.547269029517135	1	-1	0	0	1000
-73.860581475915595	13.023613325019765	0	-1	0	0	1000
-62.042888439769108	10.939835193016604	1	-1	0	0	1000
59	3.6127080574846916e-015	4	-1	0	0	10
29.500000000000004	51.095498823281879	4	-1	0	60	10
-29.499999999999989	51.095498823281886	4	-1	0	120	10
